!$Id: geos_chem_adj_mod.f,v 1.29 2012/03/01 22:00:26 daven Exp $
! =============================================================
!
      MODULE GEOS_CHEM_ADJ_MOD
! 
!******************************************************************************
!                                                                       
!                                                                       
!     GGGGGG   CCCCCC        A     DDDDD       J   OOO   I  N   N TTTTTTT  
!    G        C             A A    D    D      J  O   O  I  NN  N    T
!    G   GGG  C        ==  AAAAA   D    D      J  0   O  I  N N N    T
!    G     G  C           A     A  D    D  J   J  0   O  I  N  NN    T
!     GGGGGG   CCCCCC    A       A DDDDD    JJJ    OOO   I  N   N    T
!                                                                       
!                 
!           for 4 x 5, 2 x 2.5 global grids and 1 x 1 nested grids
!
!       Contact: Daven Henze (daven.henze@colorado.edu)
!                                                                     
!******************************************************************************
!
!  See the GEOS-Chem-Adj wiki:
!
!     http://wiki.seas.harvard.edu/geos-chem/index.php/GEOS-Chem_Adjoint
!
!  for the most up-to-date GEOS-CHEM documentation on the following topics:
!
!     - installation, compilation, and execution
!     - coding practice and style
!     - input files and met field data files
!     - horizontal and vertical resolution
!     - modification history
!
!******************************************************************************
!
      IMPLICIT NONE
      
      ! Header files 
#     include "CMN_SIZE"          ! Size parameters
#     include "CMN_DIAG"          ! Diagnostic switches, NJDAY
#     include "CMN_GCTM"          ! Physical constants
#     include "define_adj.h"      ! Obs operators

      CONTAINS

      SUBROUTINE DO_GEOS_CHEM_ADJ

      ! References to F90 modules 
      USE A3_READ_MOD,       ONLY : GET_A3_FIELDS
      USE A3_READ_MOD,       ONLY : OPEN_A3_FIELDS
      USE A3_READ_MOD,       ONLY : UNZIP_A3_FIELDS
      USE A6_READ_MOD,       ONLY : GET_A6_FIELDS
      USE A6_READ_MOD,       ONLY : OPEN_A6_FIELDS
      USE A6_READ_MOD,       ONLY : UNZIP_A6_FIELDS
      USE BENCHMARK_MOD,     ONLY : STDRUN
      USE CARBON_MOD,        ONLY : WRITE_GPROD_APROD
      USE CONVECTION_MOD,    ONLY : DO_CONVECTION
      USE COMODE_MOD,        ONLY : INIT_COMODE
      USE DIAG_MOD,          ONLY : DIAGCHLORO
      USE DIAG41_MOD,        ONLY : DIAG41,          ND41
      USE DIAG42_MOD,        ONLY : DIAG42,          ND42
      USE DIAG48_MOD,        ONLY : DIAG48,          ITS_TIME_FOR_DIAG48
      USE DIAG49_MOD,        ONLY : DIAG49,          ITS_TIME_FOR_DIAG49
      USE DIAG50_MOD,        ONLY : DIAG50,          DO_SAVE_DIAG50
      USE DIAG51_MOD,        ONLY : DIAG51,          DO_SAVE_DIAG51
      USE DIAG_OH_MOD,       ONLY : PRINT_DIAG_OH
      USE DAO_MOD,           ONLY : AD,              AIRQNT  
      USE DAO_MOD,           ONLY : AVGPOLE,         CLDTOPS
      USE DAO_MOD,           ONLY : CONVERT_UNITS,   COPY_I6_FIELDS
      USE DAO_MOD,           ONLY : COSSZA,          INIT_DAO
      USE DAO_MOD,           ONLY : INTERP,          PS1
      USE DAO_MOD,           ONLY : PS2,             PSC2          
      USE DAO_MOD,           ONLY : T,               TS            
      USE DAO_MOD,           ONLY : SUNCOS,          SUNCOSB
      USE DAO_MOD,           ONLY : MAKE_RH
      USE DRYDEP_MOD,        ONLY : DO_DRYDEP
      USE EMISSIONS_MOD,     ONLY : DO_EMISSIONS
      USE ERROR_MOD,         ONLY : DEBUG_MSG
      USE FILE_MOD,          ONLY : IU_BPCH,         IU_DEBUG
      USE FILE_MOD,          ONLY : IU_ND48,         IU_SMV2LOG    
      USE FILE_MOD,          ONLY : CLOSE_FILES
      USE GLOBAL_CH4_MOD,    ONLY : INIT_GLOBAL_CH4, CH4_AVGTP
      USE GCAP_READ_MOD,     ONLY : GET_GCAP_FIELDS
      USE GCAP_READ_MOD,     ONLY : OPEN_GCAP_FIELDS
      USE GCAP_READ_MOD,     ONLY : UNZIP_GCAP_FIELDS
      USE GWET_READ_MOD,     ONLY : GET_GWET_FIELDS
      USE GWET_READ_MOD,     ONLY : OPEN_GWET_FIELDS
      USE GWET_READ_MOD,     ONLY : UNZIP_GWET_FIELDS
      USE I6_READ_MOD,       ONLY : GET_I6_FIELDS_1
      USE I6_READ_MOD,       ONLY : GET_I6_FIELDS_2
      USE I6_READ_MOD,       ONLY : OPEN_I6_FIELDS
      USE I6_READ_MOD,       ONLY : UNZIP_I6_FIELDS
      USE INPUT_MOD,         ONLY : READ_INPUT_FILE
      USE LAI_MOD,           ONLY : RDISOLAI
      USE LIGHTNING_NOX_MOD, ONLY : LIGHTNING
      USE LOGICAL_MOD,       ONLY : LEMIS,     LCHEM, LUNZIP,  LDUST
      USE LOGICAL_MOD,       ONLY : LLIGHTNOX, LPRT,  LSTDRUN, LSVGLB
      USE LOGICAL_MOD,       ONLY : LWAIT,     LTRAN, LUPBD,   LCONV
      USE LOGICAL_MOD,       ONLY : LWETD,     LTURB, LDRYD,   LMEGAN  
      USE LOGICAL_MOD,       ONLY : LDYNOCEAN, LSOA,  LVARTROP
      USE LOGICAL_MOD,       ONLY : LSULF 
      USE MEGAN_MOD,         ONLY : INIT_MEGAN
      USE MEGAN_MOD,         ONLY : UPDATE_T_15_AVG
      USE MEGAN_MOD,         ONLY : UPDATE_T_DAY
      USE PBL_MIX_MOD,       ONLY : DO_PBL_MIX
      USE OCEAN_MERCURY_MOD, ONLY : MAKE_OCEAN_Hg_RESTART
      USE OCEAN_MERCURY_MOD, ONLY : READ_OCEAN_Hg_RESTART
      USE PLANEFLIGHT_MOD,   ONLY : PLANEFLIGHT
      USE PLANEFLIGHT_MOD,   ONLY : SETUP_PLANEFLIGHT 
      USE PRESSURE_MOD,      ONLY : INIT_PRESSURE
      USE PRESSURE_MOD,      ONLY : SET_FLOATING_PRESSURE, get_pedge
      USE TIME_MOD,          ONLY : GET_NYMDb,        GET_NHMSb
      USE TIME_MOD,          ONLY : GET_NYMD,         GET_NHMS
      USE TIME_MOD,          ONLY : GET_A3_TIME,      GET_FIRST_A3_TIME
      USE TIME_MOD,          ONLY : GET_A6_TIME,      GET_FIRST_A6_TIME
      USE TIME_MOD,          ONLY : GET_I6_TIME,      GET_MONTH
      USE TIME_MOD,          ONLY : GET_TAU,          GET_TAUb
      USE TIME_MOD,          ONLY : GET_TS_CHEM,      GET_TS_DYN
      USE TIME_MOD,          ONLY : GET_ELAPSED_SEC,  GET_TIME_AHEAD
      USE TIME_MOD,          ONLY : GET_DAY_OF_YEAR,  ITS_A_NEW_DAY
      USE TIME_MOD,          ONLY : ITS_A_NEW_SEASON, GET_SEASON
      USE TIME_MOD,          ONLY : ITS_A_NEW_MONTH,  GET_NDIAGTIME
      USE TIME_MOD,          ONLY : ITS_A_LEAPYEAR,   GET_YEAR
      USE TIME_MOD,          ONLY : ITS_TIME_FOR_A3,  ITS_TIME_FOR_A6
      USE TIME_MOD,          ONLY : ITS_TIME_FOR_I6,  ITS_TIME_FOR_CHEM
      USE TIME_MOD,          ONLY : ITS_TIME_FOR_CONV,ITS_TIME_FOR_DEL
      USE TIME_MOD,          ONLY : ITS_TIME_FOR_DIAG,ITS_TIME_FOR_DYN
      USE TIME_MOD,          ONLY : ITS_TIME_FOR_EMIS,ITS_TIME_FOR_EXIT
      USE TIME_MOD,          ONLY : ITS_TIME_FOR_UNIT,ITS_TIME_FOR_UNZIP
      USE TIME_MOD,          ONLY : ITS_TIME_FOR_BPCH
      USE TIME_MOD,          ONLY : SET_CT_CONV,      SET_CT_DYN
      USE TIME_MOD,          ONLY : SET_CT_EMIS,      SET_CT_CHEM
      USE TIME_MOD,          ONLY : SET_DIAGb,        SET_DIAGe
      USE TIME_MOD,          ONLY : SET_CURRENT_TIME, PRINT_CURRENT_TIME
      USE TIME_MOD,          ONLY : SET_ELAPSED_MIN,  SYSTEM_TIMESTAMP
      USE TRACER_MOD,        ONLY : CHECK_STT, N_TRACERS, STT, TCVV
      USE TRACER_MOD,        ONLY : ITS_AN_AEROSOL_SIM
      USE TRACER_MOD,        ONLY : ITS_A_CH4_SIM
      USE TRACER_MOD,        ONLY : ITS_A_FULLCHEM_SIM
      USE TRACER_MOD,        ONLY : ITS_A_H2HD_SIM
      USE TRACER_MOD,        ONLY : ITS_A_MERCURY_SIM
      USE TRACER_MOD,        ONLY : ITS_A_TAGCO_SIM
      USE TRACER_MOD,        ONLY : ITS_A_TAGOX_SIM
      USE TRANSPORT_MOD,     ONLY : DO_TRANSPORT
      USE TROPOPAUSE_MOD,    ONLY : READ_TROPOPAUSE, CHECK_VAR_TROP
      USE RESTART_MOD,       ONLY : MAKE_RESTART_FILE, READ_RESTART_FILE
      USE UPBDFLX_MOD,       ONLY : DO_UPBDFLX,        UPBDFLX_NOY
      USE UVALBEDO_MOD,      ONLY : READ_UVALBEDO
      USE WETSCAV_MOD,       ONLY : INIT_WETSCAV,      DO_WETDEP
      USE XTRA_READ_MOD,     ONLY : GET_XTRA_FIELDS,   OPEN_XTRA_FIELDS
      USE XTRA_READ_MOD,     ONLY : UNZIP_XTRA_FIELDS
      USE ERROR_MOD,         ONLY : IT_IS_NAN, IT_IS_FINITE   !yxw
      ! USE STATEMENTS FOR ADJOINT
      USE CHECKPT_MOD,       ONLY : CHK_PSC 
      USE CHECKPOINT_MOD,    ONLY : READ_CONVECTION_CHKFILE
      USE CHECKPOINT_MOD,    ONLY : READ_PRESSURE_CHKFILE
      USE DAO_MOD,           ONLY : COPY_I6_FIELDS_ADJ
      USE DAO_MOD,           ONLY : INTERP_ADJ
      USE ERROR_MOD,         ONLY : ERROR_STOP
      USE I6_READ_MOD,       ONLY : OPEN_I6_FIELDS_ADJ
      USE I6_READ_MOD,       ONLY : GET_I6_FIELDS_1_ADJ
      USE A6_READ_MOD,       ONLY : OPEN_A6_FIELDS_ADJ
      USE A3_READ_MOD,       ONLY : OPEN_A3_FIELDS_ADJ
      USE GWET_READ_MOD,     ONLY : OPEN_GWET_FIELDS_ADJ
      USE CHECKPOINT_MOD,    ONLY : READ_CHEMISTRY_CHKFILE
      USE GEOS_CHEM_MOD,     ONLY : DISPLAY_MET
      USE GEOS_CHEM_MOD,     ONLY : NSECb
      USE MEGAN_MOD,         ONLY : UPDATE_T_DAY_ADJ
      USE MEGAN_MOD,         ONLY : UPDATE_T_15_AVG_ADJ
      USE TIME_MOD,          ONLY : GET_ELAPSED_MIN
      USE TIME_MOD,          ONLY : SET_ELAPSED_MIN_ADJ
      USE TIME_MOD,          ONLY : ITS_TIME_FOR_EXIT_ADJ
      USE TIME_MOD,          ONLY : ITS_A_NEW_DAY_ADJ
      USE TIME_MOD,          ONLY : ITS_TIME_FOR_A3_ADJ
      USE TIME_MOD,          ONLY : ITS_TIME_FOR_A6_ADJ
      USE TIME_MOD,          ONLY : ITS_TIME_FOR_I6_ADJ
      USE TIME_MOD,          ONLY : GET_I6_TIME_ADJ    
      USE TIME_MOD,          ONLY : GET_A6_TIME_ADJ    
      USE TIME_MOD,          ONLY : GET_A3_TIME_ADJ    
      USE TIME_MOD,          ONLY : GET_TIME_BEHIND_ADJ    
      USE TRACER_MOD,        ONLY : ITS_A_CO2_SIM
      USE TRANSPORT_MOD,     ONLY : DO_TRANSPORT_ADJ
      ! To save CSPEC_FULL restart (dkh, 02/12/09)
      USE LOGICAL_MOD,       ONLY : LSVCSPEC
      USE RESTART_MOD,       ONLY : MAKE_CSPEC_FILE

      ! adjoint specific modules (adj_group, 6/09/09)
      USE ADJ_ARRAYS_MOD,    ONLY : DAY_OF_SIM, DAYS
      USE ADJ_ARRAYS_MOD,    ONLY : ITS_TIME_FOR_OBS
      USE ADJ_ARRAYS_MOD,    ONLY : STT_ADJ
      USE ADJ_ARRAYS_MOD,    ONLY : EMS_SF_ADJ
      USE ADJ_ARRAYS_MOD,    ONLY : CHECK_STT_ADJ
      USE ADJ_ARRAYS_MOD,    ONLY : INIT_WEIGHT
      USE ADJ_ARRAYS_MOD,    ONLY : PROD_SF_ADJ
      USE ADJ_ARRAYS_MOD,    ONLY : LOSS_SF_ADJ
      USE ADJ_ARRAYS_MOD,    ONLY : MMSCL
      USE TIME_MOD,          ONLY : SET_DIRECTION
      USE CHEMISTRY_ADJ_MOD, ONLY : DO_CHEMISTRY_ADJ
      USE CHECKPT_MOD,       ONLY : MAKE_ADJ_FILE
      USE CONVECTION_ADJ_MOD,ONLY : DO_CONVECTION_ADJ
      USE EMISSIONS_ADJ_MOD, ONLY : DO_EMISSIONS_ADJ
      USE LOGICAL_ADJ_MOD,   ONLY : LADJ_TRAJ, LADJ_CHEM
      USE LOGICAL_ADJ_MOD,   ONLY : LAPSRC
      USE LOGICAL_ADJ_MOD,   ONLY : LSENS, LADJ_EMS
      USE LOGICAL_ADJ_MOD,   ONLY : LPRINTFD
      USE LOGICAL_ADJ_MOD,   ONLY : LADJ_EMS 
      USE LOGICAL_ADJ_MOD,   ONLY : LADJ_STRAT
      USE PBL_MIX_ADJ_MOD,   ONLY : DO_PBL_MIX_ADJ
      USE UPBDFLX_ADJ_MOD,   ONLY : UPBDFLX_NOY_ADJ
      USE UPBDFLX_ADJ_MOD,   ONLY : DO_UPBDFLX_ADJ
      USE WETSCAV_ADJ_MOD,   ONLY : INIT_WETSCAV_ADJ
      USE WETSCAV_ADJ_MOD,   ONLY : ADJ_INIT_WETSCAV
      USE WETSCAV_ADJ_MOD,   ONLY : DO_WETDEP_ADJ

      ! dkh debug 
      USE ADJ_ARRAYS_MOD,    ONLY : IFD, JFD, LFD, NFD, ICSFD
      USE ADJ_ARRAYS_MOD,    ONLY : ICS_SF_ADJ
      USE DRYDEP_MOD,        ONLY : DEPSAV
      
      ! jkoo
      USE DIRECTORY_ADJ_MOD,     ONLY : OPTDATA_DIR, DIAGADJ_DIR
      USE DIRECTORY_ADJ_MOD,     ONLY : ADJTMP_DIR
      USE TIME_MOD,              ONLY : EXPAND_DATE
      USE PARTNER_SAVE_MOD,     ONLY : SAVE_NETCDF_FILE
      USE PARTNER_EXTRA_MOD,     ONLY : CUSTOM_WEIGHT
      USE PARTNER_EXTRA_MOD,     ONLY : SAVE_FINAL_OUTPUTS
      USE PARTNER_EXTRA_MOD,     ONLY : SUM_STT_ADJ
      USE PARTNER_EXTRA_MOD,     ONLY : CUSTOM_WEIGHT
      CHARACTER(LEN=255)           :: FILENAME
      INTEGER           :: YYYYMMDD
      INTEGER           :: HHMMSS
      
      ! Force all variables to be declared explicitly
!      IMPLICIT NONE
!      
!      ! Header files 
!#     include "CMN_SIZE"          ! Size parameters
!#     include "CMN_DIAG"          ! Diagnostic switches, NJDAY
!#     include "CMN_GCTM"          ! Physical constants
!#     include "define_adj.h"      ! Obs operators

      ! Local variables
      LOGICAL            :: FIRST = .TRUE.
      LOGICAL            :: LXTRA 
      INTEGER            :: I,           IOS,   J,         K,      L
      INTEGER            :: N,           JDAY,  NDIAGTIME, N_DYN
      !----------------------------------------------------------------------
      ! BUG FIX: now use value of NSECb from geos_chem_mod.f (dkh, 01/25/10) 
      !INTEGER            :: N_DYN_STEPS, NSECb, N_STEP,    DATE(2)
      INTEGER            :: N_DYN_STEPS, N_STEP,    DATE(2)
      !----------------------------------------------------------------------
      INTEGER            :: YEAR,        MONTH, DAY,       DAY_OF_YEAR
      INTEGER            :: SEASON,      NYMD,  NYMDb,     NHMS
      INTEGER            :: ELAPSED_SEC, NHMSb
      REAL*8             :: TAU,         TAUb         
      CHARACTER(LEN=255) :: ZTYPE

      ! (dkh, ks, mak, cs  06/12/09) 
      INTEGER            :: FINAL_ELAPSED_MIN 
      INTEGER            :: MIN_ADJ
      INTEGER            :: NSECb_ADJ
      INTEGER            :: I62_DATE(2)
      INTEGER            :: BEHIND_DATE(2)

!      CONTAINS
!
!      SUBROUTINE DO_GEOS_CHEM_ADJ
      
      INTEGER, SAVE     ::  LOCAL_DAY

      !=================================================================
      ! GEOS-CHEM-ADJ starts here!                                            
      !=================================================================

      !=================================================================
      !            ***** I N I T I A L I Z A T I O N *****
      !=================================================================

      !----------------------------------------------------------------------
      ! BUG FIXED:  now reference NSECb from geos_chem_mod. (dkh, 01/25/10) 
      ! old code:
      !! Scary but true -- take this out and NSECb will be corrupt 
      !! Need to find the memory leak somewhere? (dkh, 11/07/09) 
      !print*, ' NSECb adj = ', NSECb
      !----------------------------------------------------------------------

      ! Echo some input to the screen
      WRITE( 6, '(a)'   ) REPEAT( '=', 79 )
      WRITE( 6, '(a,/)'   ) 'B A C K W A R D   I N T E G R A T I O N'

      ! Now set DIRECTION to -1 to indicate that it's adjoint integration
      CALL SET_DIRECTION( -1 ) 

      ! Initialize allocatable arrays
      !CALL INIT_ADJOINT
      !CALL INIT_ADJ_ANTHROEMS

      CALL INIT_WEIGHT
      CALL CUSTOM_WEIGHT

      ! Open BACKWD_met file
      CALL DISPLAY_MET(165,0)

      ! Define time variables for use below
      NHMS  = GET_NHMS()
      NYMD  = GET_NYMD()
      TAU   = GET_TAU()
      
      ! Check for NaN, Negatives, Infinities in STT_ADJ once per hour
      IF ( ITS_TIME_FOR_DIAG() ) THEN
         CALL CHECK_STT_ADJ( 'End of Dynamic Loop' )
      ENDIF
    
      ! BUG FIX: need to reset EMS_SF_ADJ so that gradients do not 
      ! accumulate from one iteration to the next. (zj, dkh, 07/30/10) 
      IF ( LADJ_EMS ) EMS_SF_ADJ = 0D0 

      ! for new strat. chem. (hml, 08/09/11, adj32_025)
      IF ( LADJ_STRAT ) THEN
         PROD_SF_ADJ = 0D0
         LOSS_SF_ADJ = 0D0
      ENDIF

    
      !=================================================================
      !      ***** 6 - H O U R   T I M E S T E P   L O O P  *****
      !=================================================================      

      ! Echo message before first timestep
      WRITE( 6, '(a)' )
      WRITE( 6, '(a)' ) REPEAT( '*', 44 )
      WRITE( 6, '(a)' ) '* B e g i n   T i m e   S t e p p i n g !! *'
      WRITE( 6, '(a)' ) REPEAT( '*', 44 )
      WRITE( 6, '(a)' ) 

      ! NSTEP is the number of dynamic timesteps w/in a 6-h interval
      N_DYN_STEPS = 360 / GET_TS_DYN()

      FINAL_ELAPSED_MIN = GET_ELAPSED_MIN()

      ! Start a new 6-h loop
      DO 

      ! Get dynamic timestep in seconds
      N_DYN = 60d0 * GET_TS_DYN()

      ! Compute time parameters at start of 6-h loop
      CALL SET_CURRENT_TIME

      !=================================================================
      !     ***** D Y N A M I C   T I M E S T E P   L O O P *****
      !=================================================================
      DO MIN_ADJ = FINAL_ELAPSED_MIN - GET_TS_DYN(), 0, - GET_TS_DYN()
    
         ! mak debug
         WRITE(6,*)'start of adj time step'
         WRITE(6,*)'MIN/MAX OF STT_ADJ:',minval(stt_adj),maxval(stt_adj)

         CALL SET_ELAPSED_MIN_ADJ

         ! Compute & print time quantities at start of dyn step
         CALL SET_CURRENT_TIME

         ! Set time variables for dynamic loop
         !DAY         = GET_DAY()
         DAY_OF_YEAR = GET_DAY_OF_YEAR()
         ELAPSED_SEC = GET_ELAPSED_SEC()
         MONTH       = GET_MONTH()
         NHMS        = GET_NHMS()
         NYMD        = GET_NYMD()
         TAU         = GET_TAU()
         YEAR        = GET_YEAR()
         SEASON      = GET_SEASON()
      
         !CALL MAKE_ADJOINT_CHKFILE( NYMD, NHMS, TAU )
  
         ! Get info from the perturbed forward run
         CALL LOAD_CHECKPT_DATA( NYMD, NHMS )
          
         !============================================================
         !           ***** R E A D   M E T   F I E L D S *****
         !============================================================
         ! If it is the first time through, we will use i6 field from the
         ! forward calculation, and all we need to do is set NSECb_ADJ
         IF ( FIRST ) THEN
 
            ! This only happens if stop time is a 6h interval, in which
            ! case NSECb gets advanced 6hrs beyond what it actually was
            ! last used as, so set it back here.
            IF ( NSECb > GET_ELAPSED_SEC() ) THEN
               NSECb = NSECb - 6 * 3600
               WRITE(6,*) '    -- Pushing NSECb back by 6h '
            ENDIF
   
            NSECb_ADJ = NSECb

            ! Instead of this, now keep the currently loaded I-6 met
            ! arrays that don't get interpolated (ie SLP) as _TMP.
            ! They will come into rotation when COPY_I6_FIELDS_ADJ
            ! is called. (dkh, 06/17/09) 
!            ! GET SLP1 and TROPP1 at the beginning of the last I-6 interval
!            I62_DATE = GET_TIME_BEHIND_ADJ(
!     &               ( GET_ELAPSED_SEC() - NSECb ) / 60 )
!            
!
!            CALL OPEN_I6_FIELDS_ADJ( I62_DATE(1), I62_DATE(2) )
!            CALL GET_I6_FIELDS_2( I62_DATE(1), I62_DATE(2) )


!            ! Now we don't reset this until after reading daily data
            !FIRST    = .FALSE.
         ENDIF

         !==============================================================
         !          ***** R E A D   I - 6   F I E L D S *****
         !==============================================================
         IF ( ITS_TIME_FOR_I6_ADJ() ) THEN
   
            WRITE(6,*)  ' ADJ: TIME FOR I-6 '
   
            !=================================================================
            !            ***** C O P Y   I - 6   F I E L D S *****
            !
            !        The I-6 fields at the beginning of the next ( forward )
            !        timestep become the fields at the end of this timestep
            !=================================================================
            CALL COPY_I6_FIELDS_ADJ
   
            ! Get the date/time for the previous I-6 data block
            BEHIND_DATE = GET_I6_TIME_ADJ()

            ! Open and read files
            CALL OPEN_I6_FIELDS_ADJ(  BEHIND_DATE(1), BEHIND_DATE(2) )
            CALL GET_I6_FIELDS_1_ADJ( BEHIND_DATE(1), BEHIND_DATE(2) )
            PRINT*,'I6 DATE = ',BEHIND_DATE(1),BEHIND_DATE(2)
   
            ! Compute avg pressure at polar caps (for ADJ argument is PS1, not PS2)
            CALL AVGPOLE( PS1 )
   
            ! Set NSECb_ADJ to be used for the interpolation
            ! where NSECb_ADJ is the total elapsed time in seconds at the
            ! beginning of the current 6h time step which contains ELAPSED_MIN
            NSECb_ADJ = ( MIN_ADJ + GET_TS_DYN() ) * 60  - 6 * 3600
   
         ENDIF

         !==============================================================
         !          ***** R E A D   A - 6   F I E L D S *****
         !==============================================================
         IF ( ITS_TIME_FOR_A6_ADJ() ) THEN
   
            WRITE(6,*)  ' ADJ: TIME FOR A-6 '
   
            ! Get the date/time for the previous A-6 data block
            BEHIND_DATE = GET_A6_TIME_ADJ()
   
            ! Open and read files
            CALL OPEN_A6_FIELDS_ADJ(  BEHIND_DATE(1), BEHIND_DATE(2) )
            CALL GET_A6_FIELDS( BEHIND_DATE(1), BEHIND_DATE(2) )
 
         ENDIF
   
         !==============================================================
         !          ***** R E A D   A - 3   F I E L D S *****
         !==============================================================
         IF ( ITS_TIME_FOR_A3_ADJ() ) THEN
   
            WRITE(6,*)  ' ADJ: TIME FOR A-3 '
   
            ! Get the date/time for the previous A-3 data block
            BEHIND_DATE = GET_A3_TIME_ADJ()
   
            ! Open & read A-3 fields
            CALL OPEN_A3_FIELDS_ADJ( BEHIND_DATE(1), BEHIND_DATE(2) )
            CALL GET_A3_FIELDS(  BEHIND_DATE(1), BEHIND_DATE(2) )

            ! Update daily mean temperature archive for MEGAN biogenics
            ! For adjoint, read in checkpointed values (dkh, 01/23/10) 
            IF ( LMEGAN ) CALL UPDATE_T_DAY_ADJ
   
#if   defined( GEOS_3 )
            !
            IF ( LDUST ) THEN
               CALL OPEN_GWET_FIELDS_ADJ( BEHIND_DATE(1), 
     &                                           BEHIND_DATE(2) )
               CALL GET_GWET_FIELDS( BEHIND_DATE(1), BEHIND_DATE(2) )
            ENDIF
#endif
   
         ENDIF

         !DAY_OF_SIM initialized to -1 in INIT_ADJ_ARRAYS
         ! keeps tabs of day of simulation, going backward in time
         ! this is handy for storing diagnostic files that have dimensions
         ! (IIPAR,JJPAR,DAYS), where DAYS is number of days in simulation
         ! (adj_group, 6/09/09)
         ! bug fix: can't use ITS_A_NEW_DAY because it advances to the
         ! next day when time is 00h
         IF( DAY_OF_SIM ==  -1) THEN

            DAY_OF_SIM = DAYS
            LOCAL_DAY = GET_DAY_OF_YEAR()

            PRINT*, 'TODAY IS', DAY_OF_SIM, 'th day of simulation'

         ELSEIF( LOCAL_DAY .ne. GET_DAY_OF_YEAR() ) THEN

            DAY_OF_SIM = DAY_OF_SIM - 1
            LOCAL_DAY = GET_DAY_OF_YEAR()

            PRINT*, 'TODAY IS',DAY_OF_SIM,'th day of simulation'

         ENDIF


         !==============================================================
         ! ***** M O N T H L Y   O R   S E A S O N A L   D A T A *****
         !==============================================================

         ! UV albedoes
         IF ( LCHEM .and. ITS_A_NEW_MONTH() ) THEN
            CALL READ_UVALBEDO( MONTH )
         ENDIF

         ! Fossil fuel emissions (SMVGEAR)
         ! THIS IS IN THE FORWARD DRIVER, but NOT IN THE GCV7 ADJ?
         ! (dkh, 06/08/09) 
         IF ( ITS_A_FULLCHEM_SIM() .or. ITS_A_TAGCO_SIM() ) THEN
            IF ( LADJ_EMS .and. ITS_A_NEW_SEASON() ) THEN
               CALL ANTHROEMS( SEASON )
            ENDIF
         ENDIF


         !==============================================================
         !              ***** D A I L Y   D A T A *****
         !
         ! RDLAI  returns today's leaf-area index
         ! RDSOIL returns today's soil type information
         !==============================================================
         ! Read daily data at 11:30 p.m. on any new day, not counting the 
         ! "first" day of the adjoint integration, during which we can
         ! still use values from the forward integration. 
         ! OLD:
         !IF ( GET_NHMS() == 233000 .AND. ( .not. FIRST ) ) THEN
         ! NEW: make more generic
         !IF (      ( GET_NHMS() == 240000 - ( GET_TS_DYN() * 100d0 ) )
         ! NEWER: correctly make more generic (dkh, 10/26/09) 
         !IF (      ( GET_NHMS() == 236000 - ( GET_TS_DYN() * 100d0 ) )
!     &       .AND. ( .not. FIRST )                           ) THEN
         ! Even NEWER: Now use ITS_A_NEW_DAY_ADJ
         IF ( ITS_A_NEW_DAY_ADJ() ) THEN 

            ! Now we checkpt XYLAI (dkh, 10/14/09) 
            !! Read leaf-area index (needed for drydep)
            !CALL RDLAI( DAY_OF_YEAR, MONTH )

            ! For MEGAN biogenics ...
            IF ( LMEGAN ) THEN

               ! Read AVHRR daily leaf-area-index
               CALL RDISOLAI( GET_DAY_OF_YEAR(), GET_MONTH() )

               ! Compute 15-day average temperature for MEGAN
               ! This will need to be checkpointed or 
               ! recalculated correctly (dkh, 06/08/09) 
               ! Now we read in the checkpointed values. 
               CALL UPDATE_T_15_AVG_ADJ

            ENDIF
               
            ! Also read soil-type info for fullchem simulation
            ! OLD: 
            !IF ( ITS_A_FULLCHEM_SIM() ) CALL RDSOIL 
            ! NEW: for v8-02-1
            IF ( ITS_A_FULLCHEM_SIM() .or. ITS_A_H2HD_SIM() ) THEN 
               CALL RDSOIL 
            ENDIF 

            !### Debug
            IF ( LPRT ) THEN
               CALL DEBUG_MSG ( '### GEOS_CHEM_ADJ: a DAILY DATA' )
            ENDIF 

         ENDIF
   
         ! Reset first-time flag
         IF ( FIRST ) FIRST = .FALSE.

         !==============================================================
         !   ***** I N T E R P O L A T E   Q U A N T I T I E S *****
         !
         ! Interpolate I-6 fields to current dynamic timestep,
         ! based on their values at NSEC and NSEC+NTDT
         !==============================================================
      
#if defined ( GEOS_3 )
         CALL INTERP( NSECb_ADJ, GET_ELAPSED_SEC(), N_DYN )
#else
         IF ( LTRAN ) THEN 
            CALL INTERP_ADJ( NSECb_ADJ, GET_ELAPSED_SEC(), N_DYN )
         ELSE 
            CALL INTERP( NSECb_ADJ, GET_ELAPSED_SEC(), N_DYN )
         ENDIF 
#endif 
 
         ! If we are not doing transport, then make sure that
         ! the floating pressure is set to PSC2 (bdf, bmy, 8/22/02)
         IF ( .not. LTRAN ) CALL SET_FLOATING_PRESSURE( PSC2 )
 
         ! Compute airmass quantities at each grid box
         CALL AIRQNT
   
         ! OLD: 
         !! (dkh, 11/07/05)  
         !! Compute the cosine of the solar zenith angle at each grid box
         !CALL COSSZA( GET_DAY_OF_YEAR(), GET_NHMSb(),
         !             GET_ELAPSED_SEC(), SUNCOS )
         !
         !! For SMVGEAR II, we also need to compute SUNCOS at
         !! the end of this chemistry timestep (bdf, bmy, 4/1/03)
         !IF (  LCHEM .and. ITS_A_FULLCHEM_SIM() ) THEN
         !   CALL COSSZA( GET_DAY_OF_YEAR(), GET_NHMSb(),
         !                GET_ELAPSED_SEC()+GET_TS_CHEM()*60, SUNCOSB )
         !ENDIF 
         ! NEW for v8-02-01
         ! Compute the cosine of the solar zenith angle array SUNCOS
         ! NOTE: SUNCOSB is not really used in PHYSPROC (bmy, 2/13/07)
         CALL COSSZA( DAY_OF_YEAR, SUNCOS )

            CALL DO_PBL_MIX( .FALSE. )


#if   defined( GEOS_3 )

         ! 1998 GEOS-3 carries the ground temperature and not the air
         ! temperature -- thus TS will be 2-3 K too high.  As a quick fix, 
         ! copy the temperature at the first sigma level into TS. 
         ! (mje, bnd, bmy, 7/3/01)
         ! OLD:
         !IF ( YEAR == 1998 ) STOP
         ! NEW:
         IF ( YEAR == 1998 ) THEN 
            CALL ERROR_STOP( '1998 not supported GEOS-3', 
     &                       'geos_chem_adj_mod.f' )
         ENDIF 
#endif     
    
         ! decrement elapsed time
!         CALL SET_ELAPSED_MIN_ADJ
!
!         CALL SET_CURRENT_TIME
!         NHMS        = GET_NHMS()
!         NYMD        = GET_NYMD()

         !==============================================================
         ! ***** B E G I N    A D J O I N T   P R O C E S S E S  *****
         !   This is where we start calling adjoint routines in the 
         !   reverse order of the forward model.
         !   (dkh, ks, mak, cs  06/08/09) 
         !==============================================================

         !==============================================================
         !     ***** U P D A T E   C O S T    F U N C T I O N *****
         !==============================================================
         IF ( ITS_TIME_FOR_OBS( ) ) THEN

            ! Update cost function and calculate adjoint forcing

            ! for sensitivity calculations...
            IF ( LSENS ) THEN 

               CALL CALC_ADJ_FORCE_FOR_SENS

            ! ... for cost functions involving observations (real or pseudo)
            ELSE 

               CALL CALC_ADJ_FORCE_FOR_OBS

            ENDIF 


         ENDIF 
         WRITE(6,*)'MIN/MAX OF STT_ADJ:',minval(stt_adj),maxval(stt_adj)

         ! Initialize wet scavenging and wetdep fields after
         ! the airmass quantities are reset after transport
         !IF ( LCONV .or. LWETD ) CALL INIT_WETSCAV_ADJ
         ! note: sulfate chemistry adjoint needs SO2s_ADJ and 
         ! H2O2s_ADJ to be allocated even if LCONV, LWETD = F. 
         IF ( LCONV .or. LWETD .or. ( LCHEM .and. LSULF ) ) THEN 
            CALL INIT_WETSCAV_ADJ
         ENDIF 
          
         !==============================================================
         ! ***** W E T   D E P O S I T I O N  (rainout + washout) *****
         !==============================================================
         PRINT *, 'ddd jk before WETDEP_ADJ'
         WRITE(6,*) ' STT_ADJ(IFD,JFD,LFD,NFD) = ' 
     &              , STT_ADJ(IFD,JFD,LFD,NFD)
         WRITE(6,*) ' MIN/MAX OF STT_ADJ:', 
     &      MINVAL(STT_ADJ), MAXVAL(STT_ADJ)
         IF ( LWETD .and. ITS_TIME_FOR_DYN() ) CALL DO_WETDEP_ADJ
         PRINT *, 'ddd jk after WETDEP_ADJ'
         WRITE(6,*) ' STT_ADJ(IFD,JFD,LFD,NFD) = ' 
     &              , STT_ADJ(IFD,JFD,LFD,NFD)
         WRITE(6,*) ' MIN/MAX OF STT_ADJ:', 
     &      MINVAL(STT_ADJ), MAXVAL(STT_ADJ)

       
         !===============================================================
         ! Recalculate the emission and drydep rates here (dkh, 08/06/09) 
         !===============================================================
         !-------------------------------
         ! Test for emission timestep
         !-------------------------------
         IF ( ITS_TIME_FOR_EMIS() ) THEN

            ! Increment emission counter
            CALL SET_CT_EMIS( INCREMENT=.TRUE. )

            !========================================================
            !         ***** D R Y   D E P O S I T I O N *****
            !========================================================
            IF ( LDRYD .and. ( .not. ITS_A_H2HD_SIM() ) ) CALL DO_DRYDEP
         WRITE(6,*)'MIN/MAX OF STT_ADJ:',minval(stt_adj),maxval(stt_adj)

            !========================================================
            !             ***** E M I S S I O N S *****
            !         ( only need to do this for fullchem ) 
            !========================================================
            IF ( LEMIS .and. ITS_A_FULLCHEM_SIM() ) 
     &         CALL DO_EMISSIONS

         ENDIF

         !===========================================================
         !               ***** C H E M I S T R Y *****
         !=========================================================== 

         ! Also need to compute avg P, T for CH4 chemistry (bmy, 1/16/01)
         ! fwd:
         !IF ( ITS_A_CH4_SIM() ) CALL CH4_AVGTP
         ! Now supported (kjw, dkh, 02/12/12, adj32_023) 
         !IF ( ITS_A_CH4_SIM() ) THEN 
         !   CALL ERROR_STOP( 'CH4_SIM not supported', 'geos_chem_adj')
         !ENDIF  

         ! Every chemistry timestep...
         IF ( ITS_TIME_FOR_CHEM() ) THEN      
            
            ! mak: try adj chemistry (6/20/09)
            IF ( LCHEM .AND. LADJ_CHEM ) THEN

               ! Use dkh checkpt scheme (dkh, 06/12/09) 
               !CALL READ_CHEMISTRY_CHKFILE( NYMD, NHMS )

               ! adj_group
               IF ( LPRINTFD ) THEN
                   write(6,*) ' Before CHEMISTRY : = ',
     &                        STT(IFD,JFD,LFD,:)
               ENDIF


               ! Call the appropriate chemistry routine
         PRINT *, 'ddd jk before CHEMISTRY_ADJ'
         WRITE(6,*) ' STT_ADJ(IFD,JFD,LFD,NFD) = ' 
     &              , STT_ADJ(IFD,JFD,LFD,NFD)
         WRITE(6,*) ' MIN/MAX OF STT_ADJ:', 
     &      MINVAL(STT_ADJ), MAXVAL(STT_ADJ)
               CALL DO_CHEMISTRY_ADJ
         PRINT *, 'ddd jk after CHEMISTRY_ADJ'
         WRITE(6,*) ' STT_ADJ(IFD,JFD,LFD,NFD) = ' 
     &              , STT_ADJ(IFD,JFD,LFD,NFD)
         WRITE(6,*) ' MIN/MAX OF STT_ADJ:', 
     &      MINVAL(STT_ADJ), MAXVAL(STT_ADJ)

            END IF

         ENDIF  

         !-------------------------------
         ! Test for emission timestep
         !-------------------------------
         IF ( ITS_TIME_FOR_EMIS() .and. LADJ_EMS ) THEN

            !========================================================
            !             ***** E M I S S I O N S *****
            !========================================================

         PRINT *, 'ddd jk before EMISSIONS_ADJ'
         WRITE(6,*) ' STT_ADJ(IFD,JFD,LFD,NFD) = ' 
     &              , STT_ADJ(IFD,JFD,LFD,NFD)
         WRITE(6,*) ' MIN/MAX OF STT_ADJ:', 
     &      MINVAL(STT_ADJ), MAXVAL(STT_ADJ)
            IF ( LEMIS ) CALL DO_EMISSIONS_ADJ
         PRINT *, 'ddd jk after EMISSIONS_ADJ'
         WRITE(6,*) ' STT_ADJ(IFD,JFD,LFD,NFD) = ' 
     &              , STT_ADJ(IFD,JFD,LFD,NFD)
         WRITE(6,*) ' MIN/MAX OF STT_ADJ:', 
     &      MINVAL(STT_ADJ), MAXVAL(STT_ADJ)

         ENDIF


         !==============================================================
         !   ***** U N I T   C O N V E R S I O N  ( J/kg -> J/[v/v] ) *****
         !==============================================================
         IF ( ITS_TIME_FOR_UNIT() ) THEN
            CALL CONVERT_UNITS( 2,  N_TRACERS, TCVV, AD, STT_ADJ )
            
            !### Debug
            IF ( LPRT ) THEN
               CALL DEBUG_MSG( '### GEOS_CHEM_ADJ: a CONVERT_UNITS:2' )
            ENDIF 

         ENDIF

         !=====================================================
         !      ***** CONVECTION ADJOINT *****
         !=====================================================
         IF ( ITS_TIME_FOR_CONV() ) THEN

            !===========================================================
            !        ***** C L O U D   C O N V E C T I O N *****
            !===========================================================
            IF ( LCONV ) THEN
               
               !--------------------------------------------------------------
               !       ***** CHECKPOINTING EVERY DYNAMIC TIME STEP *****     
               !--------------------------------------------------------------

               ! Use READ_CHK_CON_FILE (dkh, 06/14/09) 
               !CALL READ_CONVECTION_CHKFILE( NYMD, NHMS )

               ! dkh debug  (dkh, 09/07/09) 
               print*, ' before DO_CONVECTION_ADJ' 
               CALL CHECK_STT_ADJ( 'before DO_CONVECTION_ADJ' )
         WRITE(6,*) ' STT_ADJ(IFD,JFD,LFD,NFD) = ' 
     &              , STT_ADJ(IFD,JFD,LFD,NFD)
         WRITE(6,*) ' MIN/MAX OF STT_ADJ:', 
     &      MINVAL(STT_ADJ), MAXVAL(STT_ADJ)

               CALL DO_CONVECTION_ADJ
         PRINT *, 'ddd jk after CONVECTION_ADJ'
         WRITE(6,*) ' STT_ADJ(IFD,JFD,LFD,NFD) = ' 
     &              , STT_ADJ(IFD,JFD,LFD,NFD)
         WRITE(6,*) ' MIN/MAX OF STT_ADJ:', 
     &      MINVAL(STT_ADJ), MAXVAL(STT_ADJ)

               ! dkh debug  (dkh, 09/07/09) 
               print*, ' after DO_CONVECTION_ADJ' 
               CALL CHECK_STT_ADJ( 'After DO_CONVECTION_ADJ' )

            ENDIF
            
            !===========================================================
            !      ***** M I X E D   L A Y E R   M I X I N G *****
            !===========================================================
            !IF ( LPRINTFD ) THEN 
            !   CALL DISPLAY_MET(165,3)
            !   CALL DISPLAY_MET(165,5)
            !ENDIF 

         PRINT *, 'ddd jk before PBL_MIX_ADJ'
         WRITE(6,*) ' STT_ADJ(IFD,JFD,LFD,NFD) = ' 
     &              , STT_ADJ(IFD,JFD,LFD,NFD)
         WRITE(6,*) ' MIN/MAX OF STT_ADJ:', 
     &      MINVAL(STT_ADJ), MAXVAL(STT_ADJ)
            CALL DO_PBL_MIX_ADJ( LTURB ) 
         PRINT *, 'ddd jk after PBL_MIX_ADJ'
         WRITE(6,*) ' STT_ADJ(IFD,JFD,LFD,NFD) = ' 
     &              , STT_ADJ(IFD,JFD,LFD,NFD)
         WRITE(6,*) ' MIN/MAX OF STT_ADJ:', 
     &      MINVAL(STT_ADJ), MAXVAL(STT_ADJ)

            !IF ( LPRINTFD ) THEN 
            !   CALL DISPLAY_MET(165,4)
            !ENDIF 

            !### Debug
            IF ( LPRT ) THEN 
               CALL DEBUG_MSG( '### GEOS_CHEM_ADJ: a PBL_MIX_ADJ:1' )
            ENDIF 


         ENDIF  

         !=====================================================
         !      ***** TRANSPORT ADJOINT *****
         !=====================================================   

         IF ( ITS_TIME_FOR_DYN() ) THEN

             
            !IF( LTRAN ) THEN
            !   CALL READ_PRESSURE_CHKFILE( NYMD, NHMS )
            !   CALL SET_FLOATING_PRESSURE( TMP_PRESS(:,:) )
            !ENDIF
 
            IF ( LCONV .or. LWETD .or. ( LCHEM .and. LSULF ) ) THEN 
               CALL ADJ_INIT_WETSCAV
            ENDIF 

            IF ( LPRINTFD ) THEN
               CALL DISPLAY_MET( 165 , 1 )
            ENDIF

            !--------------------------------------------------------------
            ! BUG FIX: apply an additional unit conversion to 
            ! go from discrete to continuous adjointg (jkoo, dkh, 02/14/11) 
            ! OLD:
            !IF ( LTRAN ) CALL DO_TRANSPORT_ADJ
            ! NEW:
            IF ( LTRAN ) THEN 
 
         PRINT *, 'ddd jk before TRANSPORT_ADJ'
         WRITE(6,*) ' STT_ADJ(IFD,JFD,LFD,NFD) = ' 
     &              , STT_ADJ(IFD,JFD,LFD,NFD)
         WRITE(6,*) ' MIN/MAX OF STT_ADJ:', 
     &      MINVAL(STT_ADJ), MAXVAL(STT_ADJ)
               CALL CONVERT_UNITS( 1,  N_TRACERS, TCVV, AD, STT_ADJ )

               CALL DO_TRANSPORT_ADJ

               CALL CONVERT_UNITS( 2,  N_TRACERS, TCVV, AD, STT_ADJ )
         PRINT *, 'ddd jk after TRANSPORT_ADJ'
         WRITE(6,*) ' STT_ADJ(IFD,JFD,LFD,NFD) = ' 
     &              , STT_ADJ(IFD,JFD,LFD,NFD)
         WRITE(6,*) ' MIN/MAX OF STT_ADJ:', 
     &      MINVAL(STT_ADJ), MAXVAL(STT_ADJ)

            ENDIF 
            !--------------------------------------------------------------
            
            ! Reset air mass quantities
            CALL AIRQNT

            IF ( LPRINTFD ) THEN
               CALL DISPLAY_MET( 165 , 2 )
            ENDIF


            ! Replace with strat chem (hml, dkh, 02/27/12, adj32_025) 
            !! Repartition [NOy] species after transport
            !IF ( LUPBD .and. ITS_A_FULLCHEM_SIM() ) THEN
            !   CALL UPBDFLX_NOY_ADJ( 1 )
            !ENDIF

#if   !defined( GEOS_5 )
            ! Get relative humidity 
            ! (after recomputing pressure quantities)
            ! NOTE: for GEOS-5 we'll read this from disk instead
            CALL MAKE_RH 
#endif


         ENDIF  

         !==============================================================
         !     ***** S T R A T O S P H E R I C   F L U X E S *****
         !==============================================================
         ! Replace with strat chem (hml, dkh, 02/27/12, adj32_025) 
         !IF ( LUPBD ) CALL DO_UPBDFLX_ADJ  

         !==============================================================
         !   ***** U N I T   C O N V E R S I O N  ( J/[v/v] -> J/kg ) *****
         !==============================================================
         IF ( ITS_TIME_FOR_UNIT() ) THEN
            CALL CONVERT_UNITS( 1,  N_TRACERS, TCVV, AD, STT_ADJ )
            
            !### Debug
            IF ( LPRT ) THEN 
               CALL DEBUG_MSG( '### GEOS_CHEM_ADJ: a CONVERT_UNITS:1' )
            ENDIF 

         ENDIF   

         ! Check for NaN, Negatives, Infinities in STT_ADJ once per hour
         IF ( ITS_TIME_FOR_DIAG() ) THEN
            CALL CHECK_STT_ADJ( 'End of Dynamic Loop' )
         ENDIF

         ! dkh debug
         print*, ' MIN / MAX STT_ADJ = ', 
     &      MINVAL(STT_ADJ), MAXVAL(STT_ADJ)

         ! Save adjoint values to *.adj.* file
         IF ( LADJ_TRAJ ) THEN !jkoo
         IF ( MOD(GET_NHMS(),30000)==0 ) THEN
            YYYYMMDD=GET_NYMD()
            HHMMSS=GET_NHMS()
            FILENAME='adj.YYYYMMDD.hhmm.nc'
           ! Replace YYYY, MM, DD, HH tokens in FILENAME w/ actual values
            CALL EXPAND_DATE( FILENAME, YYYYMMDD, HHMMSS )
           ! Add ADJ_DIR prefix to filename
            FILENAME = TRIM( DIAGADJ_DIR ) // TRIM( FILENAME )
            CALL SAVE_NETCDF_FILE( FILENAME, STT_ADJ )
!            CALL MAKE_ADJ_FILE(GET_NYMD(),GET_NHMS())
         ENDIF 
         ENDIF 

         ! At every hour sum STT_ADJ
         IF ( MOD(GET_NHMS(),10000)==0 ) THEN
            SUM_STT_ADJ = SUM_STT_ADJ + STT_ADJ
         ENDIF


         !==============================================================
         !       ***** T E S T   F O R   E N D   O F   R U N *****
         !==============================================================
         IF ( ITS_TIME_FOR_EXIT_ADJ() ) GOTO 9999

      ENDDO
      
      ENDDO      

      !=================================================================
      !         ***** C L E A N U P   A N D   Q U I T *****
      !=================================================================
 9999 CONTINUE
         CALL SAVE_FINAL_OUTPUTS !jkoo
      !WRITE(141,*) f

      ! Get ICS_SF_ADJ from STT_ADJ (dkh, 07/23/06, mak, 6/19/09)  
      CALL RESCALE_ADJOINT
    
      ! Transform to ICS_SF_ADJ and EMS_SF_ADJ to log scaling if desired 
#if defined ( LOG_OPT )
      CALL LOG_RESCALE_ADJOINT
#endif

! Obsolete (zhej, dkh, 01/16/12, adj32_015) 
!      ! Set gradient in cushion as ZERO   (zhe 11/28/10)
!#if defined( GRID05x0666 ) .and. defined (NESTED_CH)
!      CALL NESTED_RESCALE_ADJOINT
!#endif

         ! dkh debug
         print*, ' MIN / MAX ICS_SF_ADJ = ', 
     &      MINVAL(ICS_SF_ADJ), MAXVAL(ICS_SF_ADJ)

      !### Debug
      IF ( LPRT ) THEN 
         CALL DEBUG_MSG( '### GEOS_CHEM_ADJ: a RESCALE' ) 
      ENDIF 


      ! dkh debug
      print*, ' MIN / MAX STT     = ', 
     &   MINVAL(STT    ), MAXVAL(STT    )

!      ! dkh debug
!      print*, ' MIN / MAX ICS_SF_ADJ = ', 
!     &   MINVAL(ICS_SF_ADJ), MAXVAL(ICS_SF_ADJ)


      !============================================
      !   BACKGROUND COST AND GRADIENT UPDATE
      !
      ! aka A PRIORI TERM CALCULATION 
      !============================================

      ! Now we have separate subroutines for these (dkh, 02/09/11) 
      IF ( LAPSRC ) THEN

         IF ( ITS_A_FULLCHEM_SIM() .or. ITS_A_TAGCO_SIM() .or. 
     &        ITS_A_CH4_SIM()                                  ) THEN
            CALL CALC_APRIORI

         ELSEIF ( ITS_A_CO2_SIM() ) THEN

            CALL CALC_APRIORI_CO2

         ! (yhmao, dkh, 01/13/12, adj32_013) 
         ELSEIF (ITS_AN_AEROSOL_SIM()) THEN 

            CALL CALC_APRIORI_BCOC

         ELSE

            CALL ERROR_STOP( 'APRIORI calc not defined',
     &                       'geos_chem_adj_mod'         )

         ENDIF

         PRINT*, 'Added (x-xa)T invSa (x-xa) to the cost func'

      ENDIF

      ! Print ending time of simulation
      CALL DISPLAY_END_TIME
    
      ! Return to calling routine. 
      END SUBROUTINE DO_GEOS_CHEM_ADJ

! Moved these routines to time_mod.f (dkh, 01/23/10) 
!!------------------------------------------------------------------------------ 
!
!      FUNCTION ITS_TIME_FOR_I6_ADJ() RESULT( FLAG )
!!
!!******************************************************************************
!!  Function ITS_TIME_FOR_I6_ADJ returns TRUE if it is time to read in I-6
!!  (instantaneous 6-h fields) and FALSE otherwise. This happens when TIME_ADJ is
!!  at a 6h interval, which is equivalent to when ELAPSED_TIME+TS_DYN is at a 
!!  6h interval. (dkh, 8/25/04)
!!
!!  NOTES:
!! (1 ) Don't read in i6 fields when we are still within the last 6 h interval
!!      from the forward simulation, in which case just use the i6 fields that 
!!      are already loaded. (dkh, 9/30/04)
!! (2 ) FIXED BUG: Use EXTRA so that NHMS + (TS_DYN) is divisible by 6 h  
!!******************************************************************************
!!
!      ! Reference to f90 modules
!      USE TIME_MOD, 	 ONLY : GET_NHMS, GET_ELAPSED_SEC
!      USE TIME_MOD, 	 ONLY : GET_TS_DYN
!      USE ERROR_MOD,  	 ONLY : ERROR_STOP
!      USE GEOS_CHEM_MOD, ONLY : NSECb
!
!      ! Function value
!      LOGICAL :: FLAG
!
!      ! Local variable
!      INTEGER :: EXTRA 
!
!      !=================================================================
!      ! ITS_TIME_FOR_I6_ADJ begins here!
!      !=================================================================
!      IF ( GET_ELAPSED_SEC() >= NSECb ) THEN
!
!         ! We can use I6 fields still loaded from forward run
!         FLAG = .FALSE.
!          
!         ! Echo this fact to the screen
!         WRITE(6,*)  '      -- USE I6 FIELDS FROM FORWARD RUN '
! 
!      ELSE
!
!         ! EXTRA set so that current NHMS + 1 dynamic time step is
!         ! divisible by 060000
!         ! Original, hardwired to 30 min dynamic time step
!         !EXTRA = 7000 
!         ! Qinbin's formula, assumes TS_DYN <= 60 min
!         EXTRA = 4000 + GET_TS_DYN()*100
!
!         IF ( GET_TS_DYN() > 60 ) CALL ERROR_STOP( 'Invalid EXTRA!', 
!     &      'ITS_TIME_FOR_I6_ADJ (adjoint.f)' )  
!
!         ! We read in I-6 fields at 00, 06, 12, 18 GMT
!         FLAG = ( MOD( GET_NHMS() + EXTRA, 060000 ) == 0 )
!
!      ENDIF 
!
!      ! Return to calling program
!      END FUNCTION ITS_TIME_FOR_I6_ADJ
!
!!------------------------------------------------------------------------------
!
!      FUNCTION GET_I6_TIME_ADJ( ) RESULT( BEHIND_DATE )
!!
!!******************************************************************************
!!  Function GET_I6_TIME_ADJ returns the correct YYYYMMDD and HHMMSS values
!!  that are needed to read in the previous instantaneous 6-hour (I-6) fields.
!!  (dkh, 8/25/04)
!!
!!  NOTES:
!!  This is only called if ITS_TIME_FOR_I6_ADJ is true
!!******************************************************************************
!!
!      ! Reference to f90 modules 
!      USE TIME_MOD, ONLY : GET_TS_DYN
!
!      ! Arguments
!      INTEGER           :: BEHIND_DATE(2)
!
!      !=================================================================
!      ! GET_I6_TIME_ADJ begins here!
!      !=================================================================
!
!      ! We need to read in the I-6 fields 6h (360 mins) behind of TIME_ADJ
!      ! which is the same as 360 - TS_DYN behind ELAPSED_TIME 
!      BEHIND_DATE = GET_TIME_BEHIND_ADJ( 360 - GET_TS_DYN() )
!
!      ! Return to calling program
!      END FUNCTION GET_I6_TIME_ADJ
!
!!------------------------------------------------------------------------------
!
!      FUNCTION ITS_TIME_FOR_A6_ADJ() RESULT( FLAG )
!!
!!******************************************************************************
!!  Function ITS_TIME_FOR_A6_ADJ returns TRUE if it is time to read in I-A
!!  (average 6-h fields) and FALSE otherwise. This happens when TIME_ADJ is
!!  at a 6h interval (03, 09, 15,21), which is equivalent to when
!!  ELAPSED_TIME+TS_DYN is at a 6h interval. (dkh, 03/04/05) 
!!
!!  NOTES:
!! (1 ) Don't read in A6 fields when we are still within the last 6 h interval
!!      from the forward simulation, in which case just use the A6 fields that
!!      are already loaded. NSECb is the total elapsed seconds at the last fwd
!!      I6 interval, so if we are more than 3 hr past this, can use A6 fields
!!      from forward run. (dkh, 03/04/05)
!! 
!!******************************************************************************
!!
!      ! Reference to f90 modules
!      USE TIME_MOD,      ONLY : GET_NHMS, GET_ELAPSED_SEC
!      USE TIME_MOD,      ONLY : GET_TS_DYN
!      USE ERROR_MOD,     ONLY : ERROR_STOP
!      USE GEOS_CHEM_MOD, ONLY : NSECb
!
!      ! Function value
!      LOGICAL :: FLAG
!
!      ! Local variable
!      INTEGER :: EXTRA
!      INTEGER :: DATE(2)
!
!      !=================================================================
!      ! ITS_TIME_FOR_A6_ADJ begins here!
!      !=================================================================
!
!      IF ( GET_ELAPSED_SEC() >= NSECb + 3 * 3600 ) THEN
!
!         ! We can use A6 fields still loaded from forward run
!         FLAG = .FALSE.
!
!         ! Echo this fact to the screen
!         WRITE(6,*)  '      -- USE A6 FIELDS FROM FORWARD RUN '
!
!      ELSE
!
!#if   defined( GEOS_4 ) && defined( A_LLK_03 ) || defined ( GCAP )
!
!         ! For GEOS-4 "a_llk_03" data, we need to read A-6 fields when it
!         ! is 00, 06, 12, 18 GMT.  DATE is the current time -- test below.
!         DATE = GET_TIME_AHEAD( 0 )
!
!#else
!
!         ! For GEOS-1, GEOS-S, GEOS-3, and GEOS-4 "a_llk_04" data,
!         ! we need to read A-6 fields when it is 03, 09, 15, 21 GMT.
!         ! DATE is the time 3 before now -- test below.
!         DATE = GET_TIME_BEHIND_ADJ( 180 )
!
!#endif
!         ! EXTRA set so that current NHMS + 1 dynamic time step is
!         ! divisible by 060000
!         ! Original formula, assumes dynamic time step is 30 min
!         ! EXTRA = 7000
!         ! Qinbin's formula, assumes dynamic time step <= 60
!         EXTRA = 4000 + GET_TS_DYN() * 100
!
!         IF ( GET_TS_DYN() > 60 ) CALL ERROR_STOP( 'Invalid EXTRA!',
!     &      'ITS_TIME_FOR_A6_ADJ (adjoint.f)' )
!
!         ! We read in A-6 fields at 03, 09, 15, 21 GMT
!         FLAG = ( MOD( DATE(2) + EXTRA, 060000 ) == 0 )
!
!      ENDIF
!
!      ! Return to calling program
!      END FUNCTION ITS_TIME_FOR_A6_ADJ
!
!!------------------------------------------------------------------------------
!
!      FUNCTION GET_A6_TIME_ADJ( ) RESULT( BEHIND_DATE )
!!
!!******************************************************************************
!!  Function GET_A6_TIME_ADJ returns the correct YYYYMMDD and HHMMSS values
!!  that are needed to read in the previous average 6-hour (A-6) fields.
!!  (dkh, 03/04/05)
!!
!!  NOTES:
!!  (1 ) This is only called if ITS_TIME_FOR_A6_ADJ is true
!!
!!******************************************************************************
!!
!      ! Reference to f90 modules
!      USE TIME_MOD, ONLY : GET_TS_DYN
!
!      ! Arguments
!      INTEGER           :: BEHIND_DATE(2)
!
!      !=================================================================
!      ! GET_A6_TIME_ADJ begins here!
!      !=================================================================
!
!      ! Return the time 3h (180m) before now, since there is a 3-hour
!      ! offset between the actual time when the A-6 fields are read
!      ! and the time that the A-6 fields are stamped with. Also apply
!      ! offset of TS_DYN. 
!      BEHIND_DATE = GET_TIME_BEHIND_ADJ( 180 - GET_TS_DYN() )
!      !BEHIND_DATE = GET_TIME_BEHIND_ADJ( - TS_DYN )
!
!      ! Return to calling program
!      END FUNCTION GET_A6_TIME_ADJ
!
!!------------------------------------------------------------------------------
!
!      FUNCTION ITS_TIME_FOR_A3_ADJ() RESULT( FLAG )
!!
!!******************************************************************************
!!  Function ITS_TIME_FOR_A3_ADJ returns TRUE if it is time to read in A-3
!!  (average 3-h fields) and FALSE otherwise. This happens when TIME_ADJ is
!!  at a 3h interval, which is equivalent to when
!!  ELAPSED_TIME+TS_DYN is at a 3h interval. (dkh, 03/04/05)
!!
!!  NOTES:
!! (1 ) Don't read in 3 fields when we are still within the last 3 h interval
!!      from the forward simulation, in which case just use the A3 fields that
!!      are already loaded. NSECb is the total elapsed seconds at the last fwd
!!      I6 interval, so if we are more than 3 hr past this, can use A3 fields
!!      from forward run. (dkh, 03/04/05)
!!
!!******************************************************************************
!!
!      ! Reference to f90 modules
!      USE TIME_MOD,      ONLY : GET_NHMS, GET_ELAPSED_SEC
!      USE TIME_MOD,      ONLY : GET_TS_DYN
!      USE ERROR_MOD,     ONLY : ERROR_STOP
!      USE GEOS_CHEM_MOD, ONLY : NSECb
!
!      ! Function value
!      LOGICAL :: FLAG
!
!      ! Local variable
!      INTEGER :: EXTRA
!
!      !=================================================================
!      ! ITS_TIME_FOR_A3_ADJ begins here!
!      !=================================================================
!
!      IF ( GET_ELAPSED_SEC() >= NSECb + 3 * 3600 ) THEN
!      !IF ( GET_ELAPSED_SEC() >= NSECb + 3 * 3600 + 30*60 ) THEN
!
!         ! We can use A3 fields still loaded from forward run
!         FLAG = .FALSE.
!
!         ! Echo this fact to the screen
!         WRITE(6,*)  '      -- USE A3 FIELDS FROM FORWARD RUN '
!
!      ELSE
!         ! EXTRA set so that current NHMS + 1 dynamic time step is
!         ! divisible by 030000
!         ! Original formula, assumes dynamic time step is 30 min
!         !EXTRA = 7000
!         ! Qinbin's formula, assumes dynamic time step <= 60 min
!         EXTRA = 4000 + GET_TS_DYN() * 100
!
!         IF ( GET_TS_DYN() > 30 ) CALL ERROR_STOP( 'Invalid EXTRA!',
!     &      'ITS_TIME_FOR_A3_ADJ (adjoint.f)' )
!
!         ! We read in A-3 every 3 hours
!         FLAG = ( MOD( GET_NHMS() + EXTRA, 030000 ) == 0 )
!
!      ENDIF
!
!      ! Return to calling program
!      END FUNCTION ITS_TIME_FOR_A3_ADJ
!
!!------------------------------------------------------------------------------
!
!      FUNCTION GET_A3_TIME_ADJ( ) RESULT( BEHIND_DATE )
!!
!!******************************************************************************
!!  Function GET_A3_TIME_ADJ returns the correct YYYYMMDD and HHMMSS values
!!  that are needed to read in the previous average 3-hour (A-3) fields.
!!  (dkh, 03/04/05)
!!
!!  NOTES:
!!  (1 ) This is only called if ITS_TIME_FOR_A3_ADJ is true
!!
!!******************************************************************************
!!
!      ! Reference to f90 modules
!      USE TIME_MOD, ONLY : GET_TS_DYN
!
!      ! Arguments
!      INTEGER           :: BEHIND_DATE(2)
!
!      !=================================================================
!      ! GET_A3_TIME_ADJ begins here!
!      !=================================================================
!
!!#if   defined( GEOS_4 )
!#if   defined( GEOS_4 ) || defined ( GEOS_5 )
!
!      ! For GEOS-4/fvDAS, the A-3 fields are timestamped by center time.
!      ! Therefore, the difference between the actual time when the fields
!      ! are read and the A-3 timestamp time is 90 minutes.
!      BEHIND_DATE = GET_TIME_BEHIND_ADJ( 90 - GET_TS_DYN() )
!
!#else
!
!      ! For GEOS-1, GEOS-STRAT, GEOS-3, the A-3 fields are timestamped
!      ! by ending time.  Therefore, the difference between the actual time
!      ! when the fields are read and the A-3 timestamp time is 180 minutes.
!      !BEHIND_DATE = GET_TIME_BEHIND_ADJ( 180 - TS_DYN )
!      BEHIND_DATE = GET_TIME_BEHIND_ADJ( - GET_TS_DYN() )
!
!#endif
!
!      ! Return to calling program
!      END FUNCTION GET_A3_TIME_ADJ
!
!!------------------------------------------------------------------------------
!
!      FUNCTION GET_TIME_BEHIND_ADJ( N_MINS ) RESULT( DATE )
!!
!!******************************************************************************
!!  Function GET_TIME_BEHIND_ADJ returns to the calling program a 2-element vector
!!  containing the YYYYMMDD and HHMMSS values at the current time minus N_MINS
!!   minutes. (dkh, 8/25/04)
!!
!!  Arguments as Input:
!!  ============================================================================
!!  (1 ) N_MINS (INTEGER) : Minutes ahead of time to compute YYYYMMDD,HHMMSS
!!
!!  NOTES:
!! 
!!******************************************************************************
!!
!      ! References to F90 modules
!      USE TIME_MOD,   ONLY : GET_JD, GET_NYMD, GET_NHMS
!      USE JULDAY_MOD, ONLY : CALDATE
!
!      ! Arguments
!      INTEGER, INTENT(IN) :: N_MINS
!
!      ! Local variables
!      INTEGER             :: DATE(2)
!      REAL*8              :: JD
!
!      !=================================================================
!      ! GET_TIME_BEHIND_ADJ begins here!
!      !=================================================================
!
!      ! Astronomical Julian Date at current time - N_MINS
!      JD = GET_JD( GET_NYMD(), GET_NHMS() ) - ( N_MINS / 1440d0 )
!
!      ! Call CALDATE to compute the current YYYYMMDD and HHMMSS
!      CALL CALDATE( JD, DATE(1), DATE(2) )
!
!      ! Return to calling program
!      END FUNCTION GET_TIME_BEHIND_ADJ
!
!-----------------------------------------------------------------------------

      SUBROUTINE DISPLAY_END_TIME

      !=================================================================
      ! Internal subroutine DISPLAY_END_TIME prints the ending time of
      ! the GEOS-CHEM simulation (bmy, 5/3/05)
      !=================================================================
      USE TIME_MOD,          ONLY : SYSTEM_TIMESTAMP

      ! Local variables
      CHARACTER(LEN=16) :: STAMP

      ! Print system time stamp
      STAMP = SYSTEM_TIMESTAMP()
      WRITE( 6, 100 ) STAMP
 100  FORMAT( /, '===> SIMULATION END TIME: ', a, ' <===', / )
      
      ! Echo info
      WRITE ( 6, 3000 ) 
 3000 FORMAT
     &     ( /, '**************   E N D   O F   A D J O I N T  G E O S 
     &     -- C H E M   ',
     &     '**************' )
      
      ! Return to MAIN program
      END SUBROUTINE DISPLAY_END_TIME

!------------------------------------------------------------------------------

      SUBROUTINE MET_FIELD_DEBUG

      !=================================================================
      ! Internal subroutine MET_FIELD_DEBUG prints out the maximum
      ! and minimum, and sum of DAO met fields for debugging 
      !=================================================================

      ! References to F90 modules
      USE DAO_MOD, ONLY : AD,       AIRDEN,  AIRVOL,   ALBD1,  ALBD2
      USE DAO_MOD, ONLY : ALBD,     AVGW,    BXHEIGHT, CLDFRC, CLDF     
      USE DAO_MOD, ONLY : CLDMAS,   CLDTOPS, DELP     
      USE DAO_MOD, ONLY : DTRAIN,   GWETTOP, HFLUX,    HKBETA, HKETA     
      USE DAO_MOD, ONLY : LWI,      MOISTQ,  OPTD,     OPTDEP, PBL      
      USE DAO_MOD, ONLY : PREACC,   PRECON,  PS1,      PS2,    PSC2     
      USE DAO_MOD, ONLY : RADLWG,   RADSWG,  RH,       SLP,    SNOW     
      USE DAO_MOD, ONLY : SPHU1,    SPHU2,   SPHU,     SUNCOS, SUNCOSB  
      USE DAO_MOD, ONLY : TMPU1,    TMPU2,   T,        TROPP,  TS       
      USE DAO_MOD, ONLY : TSKIN,    U10M,    USTAR,    UWND1,  UWND2     
      USE DAO_MOD, ONLY : UWND,     V10M,    VWND1,    VWND2,  VWND     
      USE DAO_MOD, ONLY : Z0,       ZMEU,    ZMMD,     ZMMU     

#     include "CMN_SIZE" 

      ! Local variables
      INTEGER :: I, J, L, IJ

      !=================================================================
      ! MET_FIELD_DEBUG begins here!
      !=================================================================

      ! Define box to print out
      I  = 23
      J  = 34
      L  = 1
      IJ = ( ( J-1 ) * IIPAR ) + I

      !=================================================================
      ! Print out met fields at (I,J,L)
      !=================================================================
      IF ( ALLOCATED( AD       ) ) PRINT*, 'AD      : ', AD(I,J,L)        
      IF ( ALLOCATED( AIRDEN   ) ) PRINT*, 'AIRDEN  : ', AIRDEN(L,I,J) 
      IF ( ALLOCATED( AIRVOL   ) ) PRINT*, 'AIRVOL  : ', AIRVOL(I,J,L) 
      IF ( ALLOCATED( ALBD1    ) ) PRINT*, 'ALBD1   : ', ALBD1(I,J) 
      IF ( ALLOCATED( ALBD2    ) ) PRINT*, 'ALBD2   : ', ALBD2(I,J) 
      IF ( ALLOCATED( ALBD     ) ) PRINT*, 'ALBD    : ', ALBD(I,J) 
      IF ( ALLOCATED( AVGW     ) ) PRINT*, 'AVGW    : ', AVGW(I,J,L) 
      IF ( ALLOCATED( BXHEIGHT ) ) PRINT*, 'BXHEIGHT: ', BXHEIGHT(I,J,L) 
      IF ( ALLOCATED( CLDFRC   ) ) PRINT*, 'CLDFRC  : ', CLDFRC(I,J)
      IF ( ALLOCATED( CLDF     ) ) PRINT*, 'CLDF    : ', CLDF(L,I,J) 
      IF ( ALLOCATED( CLDMAS   ) ) PRINT*, 'CLDMAS  : ', CLDMAS(I,J,L) 
      IF ( ALLOCATED( CLDTOPS  ) ) PRINT*, 'CLDTOPS : ', CLDTOPS(I,J) 
      IF ( ALLOCATED( DELP     ) ) PRINT*, 'DELP    : ', DELP(L,I,J) 
      IF ( ALLOCATED( DTRAIN   ) ) PRINT*, 'DTRAIN  : ', DTRAIN(I,J,L) 
      IF ( ALLOCATED( GWETTOP  ) ) PRINT*, 'GWETTOP : ', GWETTOP(I,J) 
      IF ( ALLOCATED( HFLUX    ) ) PRINT*, 'HFLUX   : ', HFLUX(I,J) 
      IF ( ALLOCATED( HKBETA   ) ) PRINT*, 'HKBETA  : ', HKBETA(I,J,L) 
      IF ( ALLOCATED( HKETA    ) ) PRINT*, 'HKETA   : ', HKETA(I,J,L) 
      IF ( ALLOCATED( LWI      ) ) PRINT*, 'LWI     : ', LWI(I,J) 
      IF ( ALLOCATED( MOISTQ   ) ) PRINT*, 'MOISTQ  : ', MOISTQ(L,I,J) 
      IF ( ALLOCATED( OPTD     ) ) PRINT*, 'OPTD    : ', OPTD(L,I,J) 
      IF ( ALLOCATED( OPTDEP   ) ) PRINT*, 'OPTDEP  : ', OPTDEP(L,I,J) 
      IF ( ALLOCATED( PBL      ) ) PRINT*, 'PBL     : ', PBL(I,J) 
      IF ( ALLOCATED( PREACC   ) ) PRINT*, 'PREACC  : ', PREACC(I,J) 
      IF ( ALLOCATED( PRECON   ) ) PRINT*, 'PRECON  : ', PRECON(I,J) 
      IF ( ALLOCATED( PS1      ) ) PRINT*, 'PS1     : ', PS1(I,J) 
      IF ( ALLOCATED( PS2      ) ) PRINT*, 'PS2     : ', PS2(I,J) 
      IF ( ALLOCATED( PSC2     ) ) PRINT*, 'PSC2    : ', PSC2(I,J)
      IF ( ALLOCATED( RADLWG   ) ) PRINT*, 'RADLWG  : ', RADLWG(I,J)
      IF ( ALLOCATED( RADSWG   ) ) PRINT*, 'RADSWG  : ', RADSWG(I,J)
      IF ( ALLOCATED( RH       ) ) PRINT*, 'RH      : ', RH(I,J,L) 
      IF ( ALLOCATED( SLP      ) ) PRINT*, 'SLP     : ', SLP(I,J) 
      IF ( ALLOCATED( SNOW     ) ) PRINT*, 'SNOW    : ', SNOW(I,J) 
      IF ( ALLOCATED( SPHU1    ) ) PRINT*, 'SPHU1   : ', SPHU1(I,J,L) 
      IF ( ALLOCATED( SPHU2    ) ) PRINT*, 'SPHU2   : ', SPHU2(I,J,L) 
      IF ( ALLOCATED( SPHU     ) ) PRINT*, 'SPHU    : ', SPHU(I,J,L) 
      IF ( ALLOCATED( SUNCOS   ) ) PRINT*, 'SUNCOS  : ', SUNCOS(IJ) 
      IF ( ALLOCATED( SUNCOSB  ) ) PRINT*, 'SUNCOSB : ', SUNCOSB(IJ) 
      IF ( ALLOCATED( TMPU1    ) ) PRINT*, 'TMPU1   : ', TMPU1(I,J,L) 
      IF ( ALLOCATED( TMPU2    ) ) PRINT*, 'TMPU2   : ', TMPU2(I,J,L) 
      IF ( ALLOCATED( T        ) ) PRINT*, 'TMPU    : ', T(I,J,L)
      IF ( ALLOCATED( TROPP    ) ) PRINT*, 'TROPP   : ', TROPP(I,J) 
      IF ( ALLOCATED( TS       ) ) PRINT*, 'TS      : ', TS(I,J) 
      IF ( ALLOCATED( TSKIN    ) ) PRINT*, 'TSKIN   : ', TSKIN(I,J) 
      IF ( ALLOCATED( U10M     ) ) PRINT*, 'U10M    : ', U10M(I,J) 
      IF ( ALLOCATED( USTAR    ) ) PRINT*, 'USTAR   : ', USTAR(I,J) 
      IF ( ALLOCATED( UWND1    ) ) PRINT*, 'UWND1   : ', UWND1(I,J,L) 
      IF ( ALLOCATED( UWND2    ) ) PRINT*, 'UWND2   : ', UWND2(I,J,L) 
      IF ( ALLOCATED( UWND     ) ) PRINT*, 'UWND    : ', UWND(I,J,L) 
      IF ( ALLOCATED( V10M     ) ) PRINT*, 'V10M    : ', V10M(I,J)  
      IF ( ALLOCATED( VWND1    ) ) PRINT*, 'VWND1   : ', VWND1(I,J,L) 
      IF ( ALLOCATED( VWND2    ) ) PRINT*, 'VWND2   : ', VWND2(I,J,L) 
      IF ( ALLOCATED( VWND     ) ) PRINT*, 'VWND    : ', VWND(I,J,L) 
      IF ( ALLOCATED( Z0       ) ) PRINT*, 'Z0      : ', Z0(I,J) 
      IF ( ALLOCATED( ZMEU     ) ) PRINT*, 'ZMEU    : ', ZMEU(I,J,L) 
      IF ( ALLOCATED( ZMMD     ) ) PRINT*, 'ZMMD    : ', ZMMD(I,J,L) 
      IF ( ALLOCATED( ZMMU     ) ) PRINT*, 'ZMMU    : ', ZMMU(I,J,L) 

      ! Flush the output buffer
      CALL FLUSH( 6 )

      ! Return to MAIN program
      END SUBROUTINE MET_FIELD_DEBUG

!-----------------------------------------------------------------------------

      SUBROUTINE CALC_ADJ_FORCE_FOR_OBS ( )
!
!******************************************************************************
!  Subroutine CALC_ADJ_FORCE_FOR_OBS calculates the cost function and its first 
!  derivative w.r.t. the dependent variables.  (dkh, 9/01/04)
!
!  NOTE:
!  (1 ) This routine assumes that the first NOBS of RPOUT are the observations 
!  (2 ) Corrected the limitation in (1) by switching to OBS_STT and CHK_STT, 
!        both of which are same size, and indexed similarly to ADJ_STT, though 
!        they contain 3 more species than ADJ_STT.  Make sure that CHK_STT and 
!        OBS_STT are in ug/m3, so that if WEIGHT is dimentionless, J has units
!        of ug2/m6.   (dkh, 03/03/05)
!  (3 ) Now supports the LWSCALE option, where we can resale the weight matrix
!        by 1 / OBS^2.  (dkh, 03/24/05)
!  (4 ) Now error check for exploding adjoints and NaN. (dkh, 03/24/05)
!  (5 ) Now OBS_STT and CHK_STT in [kg/box]
!  (6 ) Now include factor of 1/2 in cost function. (dkh, 07/24/06)  
!  (7 ) Get rid of LWSCALE. (dkh, 09/29/06)  
!  (8 ) Add UNITS option to evaluate cost function in a units of ug/m3 for 
!        sensitivity calculations. (dkh, 10/13/06) 
!  (9 ) Add support for NO2_SAT_OBS. (dkh, 11/08/06)  
!  (10) Addu suppprt for IMPROVE_OBS. (dkh, 11/21/06)  
!  (11) Add support for UNITS = 'ppb'. (dkh, 02/12/07) 
!  (12) Add support for CASTNET_OBS. (dkh, 04/24/07) 
!  (13) Add support for spatial/temporal average of O3 (cspec_ppb). (dkh, 11/20/07) 
!  (14) Add support for attainment functions calculated in ATTAINMENT_MOD. (dkh, 11/20/07)
!  (15) Replace ATTAINMENT with PM_ATTAINMENT and O3_ATTAINMENT
!  (16) Add support for TES_NH3_OBS.  (dkh, 05/05/09) 
!  (17) Major updates, renaming, etc. (dkh, ks, mak, cs  06/08/09) 
!  (18) Add support for TES_O3_OBS. (dkh, 05/06/10) 
!  (19) Add support for GOSAT_CO2_OBS. (dkh, 11/18/10) 
!  (20) Add support for LMAX_OBS for PSEUDO_OBS. (dkh, 02/11/11) 
!  (21) Add support for MODIS_AOD_OBS (xxu, dkh, 01/09/12, adj32_011) 
!******************************************************************************
!
      ! References to F90 modules
      USE ADJ_ARRAYS_MOD,       ONLY : N_CALC, COST_FUNC
      USE ADJ_ARRAYS_MOD,       ONLY : STT_ADJ, ADJ_FORCE
      USE ADJ_ARRAYS_MOD,       ONLY : GET_WEIGHT
      USE ADJ_ARRAYS_MOD,       ONLY : OBS_STT
      USE ADJ_ARRAYS_MOD,       ONLY : NSPAN
      USE CHECKPT_MOD,          ONLY : CHK_STT, READ_OBS_FILE
      USE ERROR_MOD, 		ONLY : DEBUG_MSG, IT_IS_NAN, ERROR_STOP
      USE DAO_MOD,              ONLY : AIRVOL, AD
      USE LOGICAL_ADJ_MOD,      ONLY : LMAX_OBS
      USE TRACER_MOD,           ONLY : N_TRACERS

#if defined ( IMPROVE_SO4_NIT_OBS )   
      USE IMPROVE_MOD,          ONLY : ITS_TIME_FOR_IMPRV_OBS_STOP
      USE IMPROVE_MOD,          ONLY : ITS_TIME_FOR_IMPRV_OBS_START
      USE IMPROVE_MOD,          ONLY : ITS_TIME_FOR_IMPRV_OBS
      USE IMPROVE_MOD,          ONLY : CALC_IMPRV_FORCE, 
     &                                 ADJ_RESET_AEROAVE, 
     &                                 ADJ_UPDATE_AEROAVE
#endif

      ! (yhmao, dkh, 01/13/12, adj32_013) 
#if defined ( IMPROVE_BC_OC_OBS )
      USE IMPROVE_BC_MOD,          ONLY : ITS_TIME_FOR_IMPRV_OBS_STOP
      USE IMPROVE_BC_MOD,          ONLY : ITS_TIME_FOR_IMPRV_OBS_START
      USE IMPROVE_BC_MOD,          ONLY : ITS_TIME_FOR_IMPRV_OBS
      USE IMPROVE_BC_MOD,          ONLY : CALC_IMPRV_FORCE,
     &                                    ADJ_RESET_AEROAVE,
     &                                    ADJ_UPDATE_AEROAVE
#endif


#if defined ( PM_ATTAINMENT )
      USE ATTAINMENT_MOD,       ONLY : ITS_TIME_FOR_AVE_STOP
      USE ATTAINMENT_MOD,       ONLY : ITS_TIME_FOR_AVE_START
      USE ATTAINMENT_MOD,       ONLY : ITS_TIME_FOR_AVE
      USE ATTAINMENT_MOD,       ONLY : CALC_AVE_FORCE, 
     &                                 ADJ_RESET_AVE, 
     &                                 ADJ_UPDATE_AVE
#endif

#if defined ( CASTNET_NH4_OBS )  
      USE CASTNET_MOD,          ONLY : ITS_TIME_FOR_CAST_OBS_STOP
      USE CASTNET_MOD,          ONLY : ITS_TIME_FOR_CAST_OBS_STOP
      USE CASTNET_MOD,          ONLY : ITS_TIME_FOR_CAST_OBS_START
      USE CASTNET_MOD,          ONLY : ITS_TIME_FOR_CAST_OBS
      USE CASTNET_MOD,          ONLY : CALC_CAST_FORCE, 
     &                                 ADJ_RESET_CASTCHK, 
     &                                 ADJ_UPDATE_CASTCHK
      USE CASTNET_MOD,          ONLY : RESET_CAST_OBS_TO_FALSE
#endif 

#if defined (SCIA_KNMI_NO2_OBS)
      USE READ_SCIANO2_MOD,     ONLY : CALC_SCIANO2_FORCE
#endif

      USE TIME_MOD,             ONLY : GET_LOCALTIME, GET_NYMD, GET_NHMS
      USE GRID_MOD,             ONLY : GET_AREA_CM2
      USE TRACERID_MOD 
      ! added (dkh, 10/25/07)
      USE COMODE_MOD,           ONLY : JLOP, CSPEC
      USE COMODE_MOD,           ONLY : CSPEC_AFTER_CHEM

#if defined ( SOMO35_ATTAINMENT )
      USE O3_ATTAIN_MOD,        ONLY : CALC_O3_FORCE
#endif 

#if defined(TES_NH3_OBS)
      USE TES_NH3_MOD,          ONLY : CALC_TES_NH3_FORCE
#endif

#if defined(TES_O3_OBS)
      USE TES_O3_MOD,          ONLY : CALC_TES_O3_FORCE
#endif

#if defined(GOSAT_CO2_OBS)
      USE GOSAT_CO2_MOD,       ONLY : CALC_GOS_CO2_FORCE
#endif

! Add MOPITT v5 (zhej, dkh, 01/16/12, adj32_016) 
#if   defined( MOPITT_V3_CO_OBS ) || defined( MOPITT_V4_CO_OBS ) || defined ( MOPITT_V5_CO_OBS )
      USE MOPITT_OBS_MOD,       ONLY : READ_MOPITT_FILE,
     &                                 ITS_TIME_FOR_MOPITT_OBS, 
     &                                 CALC_MOPITT_FORCE
#endif 

#if defined( SCIA_BRE_CO_OBS ) 
!#if defined( GEOS_4 )
      USE SCIAbr_CO_OBS_MOD,    ONLY : READ_SCIAbr_CO_FILE, 
     &                                 ITS_TIME_FOR_SCIAbr_CO_OBS,
     &                                 CALC_SCIAbr_CO_FORCE

#endif 

#if defined( AIRS_CO_OBS ) 
      USE AIRS_CO_OBS_MOD,      ONLY : READ_AIRS_CO_FILES, 
     &                                 ITS_TIME_FOR_AIRS_CO_OBS,
     &                                 CALC_AIRS_CO_FORCE
#endif

#if defined( MODIS_AOD_OBS )   
      USE MODIS_AOD_OBS_MOD,    ONLY : CALC_MODIS_AOD_FORCE
#endif

! add CH4 operators (kjw, dkh, 02/12/12, adj32_023)
#if defined(TES_CH4_OBS)
      USE TES_CH4_MOD,          ONLY : CALC_TES_CH4_FORCE
#endif
#if defined(MEM_CH4_OBS)
      USE MEM_CH4_MOD,          ONLY : CALC_MEM_CH4_FORCE
#endif
#if defined(SCIA_CH4_OBS)
      USE SCIA_CH4_MOD,         ONLY : CALC_SCIA_CH4_FORCE
#endif
#if defined(LEO_CH4_OBS) 
      USE LEO_CH4_MOD,          ONLY : CALC_LEO_CH4_FORCE
#endif
#if defined(GEOCAPE_CH4_OBS) 
      USE GEOCAPE_CH4_MOD,      ONLY : CALC_GEOCAPE_CH4_FORCE
#endif

#     include "CMN_SIZE" 	! Size parameters
#     include "CMN_O3"          ! XNUMOL
      ! added (dkh, 10/25/07)
#     include "comode.h"        ! IGAS, ITLOOP
#     include "define_adj.h"    ! obs operators

      ! Internal variables 
      REAL*8              :: DIFF
      REAL*8              :: NEW_COST(IIPAR,JJPAR,LLPAR,N_TRACERS)
      INTEGER             :: I, J, L, N
      INTEGER             :: ADJ_EXPLD_COUNT
      INTEGER, PARAMETER  ::  MAX_ALLOWED_EXPLD    = 10
      REAL*8,  PARAMETER  ::  MAX_ALLOWED_INCREASE = 10D10
      REAL*8              :: MAX_ADJ_TMP
      REAL*8              :: TARGET_STT
      REAL*8              :: FACTOR 
      REAL*8              :: CF_PRIOR
      REAL*8              :: CF_TESNH3
      REAL*8              :: CF_TESO3
      REAL*8              :: CF_GOSCO2
      REAL*8              :: CF_MODIS_AOD
      REAL*8              :: CF_IMPRV
      REAL*8              :: CF_TESCH4
      REAL*8              :: CF_SCIACH4
      REAL*8              :: CF_MEMCH4
      REAL*8              :: CF_GEOCAPECH4
      REAL*8              :: CF_LEOCH4
      LOGICAL, SAVE       :: FIRST = .TRUE. 
      INTEGER, SAVE       :: OBS_COUNT  = 0

      !================================================================ 
      ! CALC_ADJ_FORCE_FOR_OBS begins here!
      !================================================================

#if   defined ( PSEUDO_OBS ) 
      ! implement a cap on total number of observations (dkh, 02/11/11) 
      IF ( LMAX_OBS ) THEN 
         OBS_COUNT = OBS_COUNT + 1 
         IF ( OBS_COUNT > NSPAN ) RETURN
      ENDIF
#endif 

      ! Echo some input to the screen
      WRITE( 6, '(a)'   ) REPEAT( '=', 79 )
      WRITE( 6, '(a,/)'   ) 'C A L C   A D J   F O R C E - O B S ' 

      ! Some error checking stuff
      MAX_ADJ_TMP     = MAXVAL( STT_ADJ )
      ADJ_EXPLD_COUNT = 0

      !================================================================
      ! NO2 from the SCIA instrument using the KNMI retrieval 
      !================================================================
#if   defined( SCIA_KNMI_NO2_OBS )
 
      ! Track cost function contributions
      CF_PRIOR = COST_FUNC           

      ! Calculate cost and forcing from satellite NO2 observations
      ! note: forcing applied directly to ADCSPEC vi ADJ_NO2_AFTER_CHEM
      ! and ADJ_CSPEC_NO2. (dkh, 11/08/06)  
      CALL CALC_SCIANO2_FORCE( COST_FUNC )

      ! Track cost function contributions
      CF_SCIA = CF_SCIA + COST_FUNC - CF_PRIOR

#endif 


      !================================================================
      ! Sulfate and nitrate filter measurements from the IMPROVE netwrk
      !================================================================
#if   defined ( IMPROVE_SO4_NIT_OBS )
 
      IF ( ITS_TIME_FOR_IMPRV_OBS_STOP( -1 ) ) THEN 

         ! Track cost function contributions
         CF_PRIOR = COST_FUNC           

         ! just to be safe:
         CALL ADJ_RESET_AEROAVE
  
         CALL CALC_IMPRV_FORCE( COST_FUNC )
      
         ! Track cost function contributions
         CF_IMPRV = CF_IMPRV + COST_FUNC - CF_PRIOR

      ENDIF 

      IF ( ITS_TIME_FOR_IMPRV_OBS() ) THEN 

         CALL ADJ_UPDATE_AEROAVE( STT_ADJ(:,:,1,IDADJNIT),
     &                            STT_ADJ(:,:,1,IDADJSO4), 
     &                            STT_ADJ(:,:,1,IDADJNH4)  )

      ENDIF 

      IF ( ITS_TIME_FOR_IMPRV_OBS_START( -1 ) ) THEN

         ! Reset
         CALL ADJ_RESET_AEROAVE

      ENDIF 
#endif   

      !================================================================
      ! BC and OC measurements from the IMPROVE netwrk !yhmao
      !================================================================
#if   defined ( IMPROVE_BC_OC_OBS )
      IF ( ITS_TIME_FOR_IMPRV_OBS_STOP( -1 ) ) THEN

         ! Track cost function contributions
         CF_PRIOR = COST_FUNC
      
         ! just to be safe:
         CALL ADJ_RESET_AEROAVE
         
         CALL CALC_IMPRV_FORCE( COST_FUNC )

         ! Track cost function contributions
         CF_IMPRV = CF_IMPRV + COST_FUNC - CF_PRIOR

      ENDIF

      IF ( ITS_TIME_FOR_IMPRV_OBS() ) THEN


         CALL ADJ_UPDATE_AEROAVE( STT_ADJ(:,:,1,IDTBCPI),
     &                            STT_ADJ(:,:,1,IDTBCPO))
      !&                            STT_ADJ(:,:,1,IDTOCPI),
      ! &                            STT_ADJ(:,:,1,IDTOCPO))

      ENDIF

      IF ( ITS_TIME_FOR_IMPRV_OBS_START( -1 ) ) THEN

         ! Reset
         CALL ADJ_RESET_AEROAVE

      ENDIF
#endif

      !================================================================
      ! NH3 profiles from the TES instrument with the AER retrieval
      !================================================================
#if   defined ( TES_NH3_OBS )

      ! Track cost function contributions
      CF_PRIOR = COST_FUNC

      CALL CALC_TES_NH3_FORCE( COST_FUNC ) 

      ! Track cost function contributions
      CF_TESNH3 = CF_TESNH3 + COST_FUNC - CF_PRIOR

#endif   

      !================================================================
      ! O3 profiles from the TES instrument 
      !================================================================
#if   defined ( TES_O3_OBS )

      ! Track cost function contributions
      CF_PRIOR = COST_FUNC

      CALL CALC_TES_O3_FORCE( COST_FUNC )

      ! Track cost function contributions
      CF_TESO3 = CF_TESO3 + COST_FUNC - CF_PRIOR

#endif   


      !================================================================
      ! CH4 profiles from the TES instrument (kjw, 02/12/12, adj32_023) 
      !================================================================
#if   defined ( TES_CH4_OBS )
!      IF ( LTES_PSO .EQ. .TRUE. ) THEN
      
      ! Track cost function contributions
      CF_PRIOR = COST_FUNC

      CALL CALC_TES_CH4_FORCE( COST_FUNC )
      
      ! Track cost function contributions
      CF_TESCH4 = CF_TESCH4 + COST_FUNC - CF_PRIOR

!      ENDIF
#endif  

      !================================================================
      ! CH4 profiles from the SCIA instrument (kjw, 02/12/12, adj32_023) 
      !================================================================
#if   defined ( SCIA_CH4_OBS )

      ! Track cost function contributions
      CF_PRIOR = COST_FUNC

      CALL CALC_SCIA_CH4_FORCE( COST_FUNC )

      ! Track cost function contributions
      CF_SCIACH4 = CF_SCIACH4 + COST_FUNC - CF_PRIOR

#endif

      !================================================================
      ! CH4 profiles from theoretical new instrument
      ! (kjw, 02/12/12, adj32_023) 
      !================================================================
#if   defined ( MEM_CH4_OBS )

      ! Track cost function contributions
      CF_PRIOR = COST_FUNC

      CALL CALC_MEM_CH4_FORCE( COST_FUNC )

      ! Track cost function contributions
      CF_MEMCH4 = CF_MEMCH4 + COST_FUNC - CF_PRIOR

#endif 

      !================================================================
      ! CH4 profiles from theoretical new instrument
      ! (kjw, 02/12/12, adj32_023) 
      !================================================================
#if   defined ( LEO_CH4_OBS )

      ! Track cost function contributions
      CF_PRIOR = COST_FUNC

      CALL CALC_LEO_CH4_FORCE( COST_FUNC )

      ! Track cost function contributions
      CF_LEOCH4 = CF_LEOCH4 + COST_FUNC - CF_PRIOR

#endif 

      !================================================================
      ! CH4 profiles from theoretical new instrument
      ! (kjw, 02/12/12, adj32_023) 
      !================================================================
#if   defined ( GEOCAPE_CH4_OBS )

      ! Track cost function contributions
      CF_PRIOR = COST_FUNC

      CALL CALC_GEOCAPE_CH4_FORCE( COST_FUNC )

      ! Track cost function contributions
      CF_GEOCAPECH4 = CF_GEOCAPECH4 + COST_FUNC - CF_PRIOR

#endif 


      !================================================================
      ! CO2 profiles from the GOSAT instrument 
      !================================================================
#if   defined ( GOSAT_CO2_OBS )

      ! Track cost function contributions
      CF_PRIOR = COST_FUNC

      CALL CALC_GOS_CO2_FORCE( COST_FUNC )

      ! Track cost function contributions 
      CF_GOSCO2 = CF_GOSCO2 + COST_FUNC - CF_PRIOR

#endif  

      !================================================================
      ! Ammonium filter measurements from CASTNet
      !================================================================
#if   defined ( CASTNET_NH4_OBS )

      ! Reset the CAST OBS flag to FALSE the first time through
      ! so that we don't try to calculate any adjoint forcing before
      ! reading an observation file. 
      IF ( FIRST ) THEN 

         COST_FUNC = 0D0 

         CALL RESET_CAST_OBS_TO_FALSE

         FIRST     = .FALSE. 

      ENDIF 
 
      IF ( ITS_TIME_FOR_CAST_OBS_START( -1 ) ) THEN

         ! Reset
         CALL ADJ_RESET_CASTCHK

[...]

         ENDDO
         ENDDO
         ENDDO
         ENDDO
!$OMP END PARALLEL DO

      ENDIF 

      ! mak debug 6/19/09
      PRINT*, 'MIN/MAX OF ICS_SF_ADJ:', minval(ICS_SF_ADJ), 
     &     maxval(ICS_SF_ADJ)
      PRINT*, 'MIN/MAX OF STT_ADJ:', minval(STT_ADJ), 
     &     maxval(STT_ADJ)
  
 
      END SUBROUTINE RESCALE_ADJOINT 


!------------------------------------------------------------------------------

       SUBROUTINE LOG_RESCALE_ADJOINT
!
!******************************************************************************
!  Subroutine LOG_RESCALE_ADJOINT converts that adjoint scaling factors to be
!  those of log based scaling factors.  (dkh, 04/25/07) 
!
!
!  NOTES:
! (1 ) Updated to v8 (mak, 6/19/09)
! (2 ) Clean up and simplify to only to log-rescaling (dkh, 11/06/09) 
!******************************************************************************
!
      ! Reference to f90 modules
      USE ERROR_MOD,            ONLY : ERROR_STOP
      USE ADJ_ARRAYS_MOD,       ONLY : STT_ADJ, MMSCL, NNEMS
      USE ADJ_ARRAYS_MOD,       ONLY : STT_ORIG
      USE ADJ_ARRAYS_MOD,       ONLY : ICS_SF_ADJ
      USE ADJ_ARRAYS_MOD,       ONLY : ICS_SF
      USE ADJ_ARRAYS_MOD,       ONLY : ICS_SF0
      USE ADJ_ARRAYS_MOD,       ONLY : EMS_SF_ADJ
      USE ADJ_ARRAYS_MOD,       ONLY : EMS_SF
      USE ADJ_ARRAYS_MOD,       ONLY : EMS_SF0
      USE LOGICAL_ADJ_MOD,      ONLY : LICS, LADJ_EMS, LFDTEST
      USE TRACER_MOD,           ONLY : N_TRACERS, STT

#     include "CMN_SIZE"       

      ! Local variables
      INTEGER   :: I, J, L, N, M

      !======================================================================
      ! LOG_RESCALE_ADJOINT begins here!
      !======================================================================


      
      IF ( LICS ) THEN 

         ! Transform back to exponential scaling factors
         ICS_SF_ADJ(:,:,:,:) = ICS_SF_ADJ(:,:,:,:) * ICS_SF(:,:,:,:)
         ICS_SF(:,:,:,:)     = LOG(ICS_SF(:,:,:,:))
         ICS_SF0(:,:,:,:)    = LOG(ICS_SF0(:,:,:,:))

      ENDIF 

      IF ( LADJ_EMS )  THEN 

         ! Transform back to exponential scaling factors
         EMS_SF_ADJ(:,:,:,:) = EMS_SF_ADJ(:,:,:,:) * EMS_SF(:,:,:,:)
         EMS_SF(:,:,:,:)     = LOG(EMS_SF(:,:,:,:))
         EMS_SF0(:,:,:,:)    = LOG(EMS_SF0(:,:,:,:))

      ENDIF 

 
      END SUBROUTINE LOG_RESCALE_ADJOINT 

! Obsolete (zhej, dkh, 01/16/12, adj32_016) 
!!------------------------------------------------------------------------------
!
!       SUBROUTINE NESTED_RESCALE_ADJOINT
!!
!!******************************************************************************
!!  Subroutine NESTED_RESCALE_ADJOINT set the gradient in the cushion region to 
!!   ZERO.  (zhe 11/28/10) 
!! 
!! NOTES:
!!
!!******************************************************************************
!!
!      ! Reference to f90 modules
!      USE ADJ_ARRAYS_MOD,    ONLY : EMS_SF_ADJ
!      USE ADJ_ARRAYS_MOD,    ONLY : MMSCL, NNEMS, NOR
!
!#     include "CMN_SIZE"
!      
!      ! Local variables
!      REAL*8  :: EMS_SF_ADJ_SAVE(IIPAR,JJPAR,MMSCL,NNEMS)   
!
!      !======================================================================
!      ! NESTED_RESCALE_ADJOINT begins here!
!      !======================================================================
!
!      
!      EMS_SF_ADJ_SAVE = EMS_SF_ADJ
!      EMS_SF_ADJ      = 0d0
!
!      ! Nested observation region
!      EMS_SF_ADJ(NOR(1):NOR(2),NOR(3):NOR(4),:,:) =
!     &       EMS_SF_ADJ_SAVE(NOR(1):NOR(2),NOR(3):NOR(4),:,:)
!      
!      ! Return to calling routine 
!      END SUBROUTINE NESTED_RESCALE_ADJOINT 
!
!!------------------------------------------------------------------------------


      SUBROUTINE CALC_APRIORI

!******************************************************************************
!  Subroutine CALC_APRIORI computes a priori term of the cost function and
!  gradient. So that for cost function defined as:
!  J(x) = (y-f(x))^T * Se^-1 *(y-f(x))  +  (x-xa)^T * Sa^-1 * (x-xa)
!  CALC_APRIORI computes (x-xa)^T Sa^-1 (x-xa), where xa are original scaling
!  factors and x are currently optimized scaling factors and Sa^-1 is an 
!  inverse diagonal matrix of a priori source variance
!  For gradient defined as:
!  grad(J(x)) = 2 * grad(f(x)) * Se^-1 * (y-f(x)) + 2 * Sa^-1 * (x-xa)
!  CALC_APRIORI computes 2 * Sa^-1 * (x-xa)
!  for a time-independent inversion (MMSCL=1)
!  (mak, 4/20/06)
!
!  NOTES:
!  ( 1) Currently the entire subroutine relies on Streets et al, 2003 inventory
!       errors, following the setup in Colette Heald's 2004 inversion paper;
!       Here, we specify 11 or so regions (12 splitting Korea and Japan) with
!       3 types of CO source (FF, BF, BB)
!  ( 2) APGRAD needs to contain MMSCL dimensions (mak, 12/02/08)
!  ( 3) Updated to v8 and new interface, make REG_PARAM come from input (mak, 6/19/09)
!  ( 4) Minor compatibility updates (mak, 9/28/09)
!  ( 5) Add a priori constraint for fulchem LOG_OPT  (dkh, 12/15/09)
!  ( 6) Now make ERR_EMS depend on the emissions type / species (dkh, 09/09/10) 
!  ( 7) Replace REG_PARAM_SPEC with REG_PARAM_ICS (dkh, 02/09/11) 
!  ( 8) Consolidate and cleanup (zhej, dkh, 01/18/12, adj32_017) 
!******************************************************************************
!
      USE ERROR_MOD,       ONLY : ALLOC_ERR, ERROR_STOP
      USE ADJ_ARRAYS_MOD,  ONLY : COST_FUNC, EMS_SF
      USE ADJ_ARRAYS_MOD,  ONLY : EMS_SF0,       ICS_SF,    ICS_SF0
      USE ADJ_ARRAYS_MOD,  ONLY : REG_PARAM_EMS, REG_PARAM_ICS
      USE ADJ_ARRAYS_MOD,  ONLY : MMSCL,         NNEMS
      USE ADJ_ARRAYS_MOD,  ONLY : EMS_SF_ADJ,    ICS_SF_ADJ
      USE ADJ_ARRAYS_MOD,  ONLY : OPT_THIS_EMS
      USE ADJ_ARRAYS_MOD,  ONLY : OPT_THIS_TRACER
      USE ADJ_ARRAYS_MOD,  ONLY : EMS_ERROR    
      USE ADJ_ARRAYS_MOD,  ONLY : ICS_ERROR    
      USE LOGICAL_ADJ_MOD, ONLY : L4DVAR, LADJ_EMS, LICS
      USE TRACER_MOD,      ONLY : N_TRACERS
#if defined ( TES_NH3_OBS )
      USE ADJ_ARRAYS_MOD,  ONLY : IDADJ_ENH3_an
      USE ADJ_ARRAYS_MOD,  ONLY : IDADJ_ENH3_bf
      USE ADJ_ARRAYS_MOD,  ONLY : IDADJ_ESO2_an1
      USE ADJ_ARRAYS_MOD,  ONLY : IDADJ_ESO2_sh
      USE ADJ_ARRAYS_MOD,  ONLY : IDADJ_ENOX_so
      USE ADJ_ARRAYS_MOD,  ONLY : IDADJ_ENOX_bb
#endif 

#     include "CMN_SIZE"

      INTEGER    :: I, J, L, M, N, AS
   
      ! Obsolete (zhej, dkh, 01/18/12, adj32_017) 
      !REAL*8,  ALLOCATABLE     :: APCOST(:,:,:,:)
      !REAL*8,  ALLOCATABLE     :: APGRAD(:,:,:,:)
      !REAL*8,  ALLOCATABLE     :: ERR_PERCENT(:,:,:)
      !REAL*8,  ALLOCATABLE     :: invSa(:,:,:)
      !INTEGER                  :: count
      !LOGICAL, SAVE            :: TRACEP = .FALSE.
      !LOGICAL, SAVE            :: SEASONAL = .FALSE.

      ! for fullchem LOG_OPT runs (dkh, 12/15/09) 
      REAL*8                   :: S2_INV
      REAL*8                   :: REG

      ! Replace TEMP2 with APCOST (zhej, dkh, 01/18/12, adj32_017) 
      !REAL*8                   :: TEMP2(IIPAR,JJPAR,MMSCL,NNEMS)
      REAL*8,  ALLOCATABLE     :: APCOST(:,:,:,:)

      ! Obsolete (zhej, dkh, 01/18/12, adj32_017) 
      !count = 0
      !TEMP2 = 0D0 

      ! Implement a priori term as was done in GCv6 adjoint.  For now, keep this entirely
      ! sep from monika's implementation.  Merge these in the near future. (dkh, 12/15/09) 
      ! Now they are merged (zhej, dkh, 01/18/12, adj32_017) 
      !IF ( L4DVAR .and. ITS_A_FULLCHEM_SIM() .and. LADJ_EMS ) THEN 
      IF ( L4DVAR .and. LADJ_EMS ) THEN 

    
#if defined ( TES_NH3_OBS )
         ! 100% error for NH3 emissions
         EMS_ERROR(IDADJ_ENH3_an:IDADJ_ENH3_bf) = EXP(1d0)
        
         ! 25% error for SO2 emissions
         EMS_ERROR(IDADJ_ESO2_an1:IDADJ_ESO2_sh) = EXP(0.25d0)
        
         ! 50% error for NOx emissions
         EMS_ERROR(IDADJ_ENOX_so:IDADJ_ENOX_bb) = EXP(0.50d0)
     
         REG_PARAM_EMS(:) = 10d0 
#endif

         ! Replace TEMP2 with APCOST (zhej, dkh, 01/18/12, adj32_017) 
         ALLOCATE( APCOST( IIPAR,JJPAR,MMSCL,NNEMS ), STAT=AS )
         IF ( AS /= 0 ) CALL ALLOC_ERR( 'APCOST' )
         APCOST = 0

!$OMP PARALLEL DO
!$OMP+DEFAULT( SHARED )  
!$OMP+PRIVATE( I, J, M, N, REG, S2_INV )
         DO N = 1, NNEMS

            ! Now skip emissions that are not included in optimization (dkh, 09/09/10) 
            IF ( .not. OPT_THIS_EMS(N) ) CYCLE 

            ! diagonal of inverse error covariance
#if defined ( LOG_OPT )
            S2_INV = 1d0 / (2 * LOG( EMS_ERROR(N) ) )
#else
            S2_INV = 1d0 / ( EMS_ERROR(N) )**2 
#endif 
            DO M = 1, MMSCL
            DO J = 1, JJPAR
            DO I = 1, IIPAR

               REG = EMS_SF(I,J,M,N) - EMS_SF0(I,J,M,N) 

               ! Calculate the contribution to the cost function, weighted by REG_PARAM 
               ! Replace TEMP2 with APCOST (zhej, dkh, 01/18/12, adj32_017) 
               APCOST(I,J,M,N) = 0.5d0 * REG_PARAM_EMS(N) * S2_INV 
     &                         * REG ** 2
   
               ! Add this to the gradients
               EMS_SF_ADJ(I,J,M,N) = EMS_SF_ADJ(I,J,M,N) 
     &                             + REG_PARAM_EMS(N) * S2_INV * REG

            ENDDO
            ENDDO
            ENDDO
         ENDDO
!$OMP END PARALLEL DO


      ! Updated and merged (zhej, dkh, 01/18/12, adj32_017) 
      ELSEIF ( L4DVAR .AND. LICS ) THEN

         ALLOCATE( APCOST( IIPAR,JJPAR,LLPAR, N_TRACERS), STAT=AS )
         IF ( AS /= 0 ) CALL ALLOC_ERR( 'APCOST' )
         APCOST = 0

!$OMP PARALLEL DO
!$OMP+DEFAULT( SHARED )
!$OMP+PRIVATE( I, J, L, N, REG, S2_INV )
         DO N = 1, N_TRACERS

            ! Now skip tracer that are not included in optimization (dkh, 09/09/10)
            IF ( .not. OPT_THIS_TRACER(N) ) CYCLE

            ! diagonal of inverse error covariance
#if defined ( LOG_OPT )
            S2_INV = 1d0 / (2 * LOG( ICS_ERROR(N) ) )
#else       
            S2_INV = 1d0 / ( ICS_ERROR(N) )**2
#endif
         
            DO L = 1, LLPAR
            DO J = 1, JJPAR
            DO I = 1, IIPAR
            
               REG = ICS_SF(I,J,L,N) - ICS_SF0(I,J,L,N)
            
               ! Calculate the contribution to the cost function, weighted by REG_PARAM
               APCOST(I,J,L,N) = 0.5d0 * REG_PARAM_ICS(N) * S2_INV 
     &                         * REG ** 2
            
               ! Add this to the gradients
               ICS_SF_ADJ(I,J,L,N) = ICS_SF_ADJ(I,J,L,N) 
     &                             + REG_PARAM_ICS(N) * S2_INV * REG
         
         ENDDO
         ENDDO
         ENDDO
         ENDDO
!$OMP END PARALLEL DO

      ELSE

         PRINT*, 'OTHER SIMULATION TYPES NOT YET SUPPORTED'
         PRINT*, 'ONLY L4DVAR with LICS OR LEMS (not even both)'
         CALL ERROR_STOP('bad APRIORI option','geos_chem_adj_mod.f')

      ENDIF

      WRITE(6,*) 'COST_FUNC before apriori = ', COST_FUNC

      ! Add total regularization penalty to cost function 
      COST_FUNC = COST_FUNC + SUM(APCOST(:,:,:,:)) 
         
      ! Write some output
      WRITE(6,*) 'Total cost with penalty ...'
      WRITE(6,*) 'COST_FUNC after adding apriori: ', COST_FUNC
      WRITE(6,*) ' MAX APCOST = ', MAXVAL(APCOST(:,:,:,:))
      WRITE(6,*) ' SUM APCOST = ', SUM(APCOST(:,:,:,:))

 
      END SUBROUTINE CALC_APRIORI

!-----------------------------------------------------------------------

      SUBROUTINE CALC_APRIORI_CO2

!******************************************************************************
!  Subroutine CALC_APRIORI_CO2 computes a priori term of the cost function and
!  gradient for the CO2 simulation. (dkh, 01/09/11) 
!
!  In this routine, we assume that we have specified the standard deviation
!  (error) in the EMS_ERROR array.  
!
!  For linear scaling factors, EMS_ERROR = p, where p is the pertent
!   error in the emissions (as a decimal, ie 1 = 100%)
! 
!  For log scaling factors, EMS_ERROR = f, where f is a fractional error. f
!   must be greater than 1.  
!
!  There is also a regularization parameter that is specified for each
!  emissions inventory, REG_PARAM_EMS, in input.gcadj. 
!
!  NOTES:
!  ( 1) Based on CALC_APRIORI 
!  
!
!******************************************************************************
!
      USE ERROR_MOD,       ONLY : ALLOC_ERR, ERROR_STOP
      USE ADJ_ARRAYS_MOD,  ONLY : COST_ARRAY,    COST_FUNC, EMS_SF
      USE ADJ_ARRAYS_MOD,  ONLY : EMS_SF0
      USE ADJ_ARRAYS_MOD,  ONLY : EMS_ERROR    
      USE ADJ_ARRAYS_MOD,  ONLY : REG_PARAM_EMS
      USE ADJ_ARRAYS_MOD,  ONLY : MMSCL,         NNEMS
      USE ADJ_ARRAYS_MOD,  ONLY : EMS_SF_ADJ
      USE ADJ_ARRAYS_MOD,  ONLY : IDADJ_ECO2ff, IDADJ_ECO2ocn
      USE LOGICAL_ADJ_MOD, ONLY : LADJ_EMS

#     include "CMN_SIZE"

      REAL*8                   :: S2_INV
      REAL*8                   :: REG
      REAL*8                   :: TEMP2(IIPAR,JJPAR,MMSCL,NNEMS)
      INTEGER                  :: I, J, M, N

      !=================================================================
      ! CALC_APRIORI_CO2 begins here!
      !=================================================================

!      ! For the moment, hardcode the emissions errors here.  In the 
!      ! future, we should define these via input files. 
!#if defined ( LOG_OPT )
!         ! assume a factor of two error
!         EMS_ERROR(:) = 2d0
!#else 
!         ! assume a 100% error 
!         EMS_ERROR(:) = 1d0
!
!         ! Alter a few to test if it's working 
!         !EMS_ERROR(IDADJ_ECO2ff)  = 1d-2
!         !EMS_ERROR(IDADJ_ECO2ocn) = 1d2
! 
!#endif 
      print*, ' debug: EMS_ERROR = ', EMS_ERROR


      ! So far have only developed this for emissions constraints
      IF ( .not. LADJ_EMS ) THEN
  
         CALL ERROR_STOP( 'APRIORI_CO2 only for LICS', 
     &                    'geos_chem_adj_mod.f'        )
        
      ENDIF 


!$OMP PARALLEL DO
!$OMP+DEFAULT( SHARED )  
!$OMP+PRIVATE( I, J, M, N, REG, S2_INV )
      DO N = 1, NNEMS
      DO M = 1, MMSCL
      DO J = 1, JJPAR
      DO I = 1, IIPAR

#if defined ( LOG_OPT )
         ! inverse of error covariance (assume diagonal) 
         S2_INV = 1d0 / ( 2 * LOG( EMS_ERROR(N) ) )
#else 
         S2_INV = 1d0 / ( EMS_ERROR(N) ** 2 )
#endif 

         REG = EMS_SF(I,J,M,N) - EMS_SF0(I,J,M,N) 

         ! Calculate the contribution to the cost function, weighted by REG_PARAM 
         TEMP2(I,J,M,N) = 0.5d0 * REG_PARAM_EMS(N) * S2_INV * REG ** 2

         ! Add this to the gradients
         EMS_SF_ADJ(I,J,M,N) = EMS_SF_ADJ(I,J,M,N) 
     &                       + REG_PARAM_EMS(N) * S2_INV * REG

      ENDDO
      ENDDO
      ENDDO
      ENDDO
!$OMP END PARALLEL DO

      WRITE(6,*) 'COST = ', COST_FUNC

      ! Add total regularization penalty to cost function 
      COST_FUNC = COST_FUNC + SUM(TEMP2(:,:,:,:)) !REG_COST  
      
      ! Write some output
      WRITE(6,*) 'Total cost with penalty = ',    COST_FUNC
      WRITE(6,*) ' MAX REG_COST = ', MAXVAL(TEMP2(:,:,:,:))
      WRITE(6,*) ' SUM REG_COST = ', SUM(TEMP2(:,:,:,:))


      END SUBROUTINE CALC_APRIORI_CO2

!-----------------------------------------------------------------------

      SUBROUTINE CALC_APRIORI_BCOC

!******************************************************************************
!  Subroutine CALC_APRIORI_BCOC computes a priori term of the cost function and
!  gradient for the BC simulation. (yhmao, dkh, 01/13/12, adj32_013) 
!
!  In this routine, we assume that we have specified the standard deviation
!  (error) in the EMS_ERROR array.  
!
!  For linear scaling factors, EMS_ERROR = p, where p is the pertent
!   error in the emissions (as a decimal, ie 1 = 100%)
! 
!  For log scaling factors, EMS_ERROR = f, where f is a fractional error. f
!   must be greater than 1.  
!
!  There is also a regularization parameter that is specified for each
!  emissions inventory, REG_PARAM_EMS, in input.gcadj. 
!
!  NOTES:
!  ( 1) Based on CALC_APRIORI 
!  
!
!******************************************************************************
!
      USE ERROR_MOD,       ONLY : ALLOC_ERR, ERROR_STOP
      USE ADJ_ARRAYS_MOD,  ONLY : COST_ARRAY,    COST_FUNC, EMS_SF
      USE ADJ_ARRAYS_MOD,  ONLY : EMS_SF0
      USE ADJ_ARRAYS_MOD,  ONLY : EMS_ERROR    
      USE ADJ_ARRAYS_MOD,  ONLY : REG_PARAM_EMS
      USE ADJ_ARRAYS_MOD,  ONLY : MMSCL,         NNEMS
      USE ADJ_ARRAYS_MOD,  ONLY : EMS_SF_ADJ
      USE ADJ_ARRAYS_MOD,  ONLY : OPT_THIS_EMS
      USE LOGICAL_ADJ_MOD, ONLY : LADJ_EMS

#     include "CMN_SIZE"

      REAL*8                   :: S2_INV
      REAL*8                   :: REG
      REAL*8                   :: TEMP2(IIPAR,JJPAR,MMSCL,NNEMS)
      INTEGER                  :: I, J, M, N

      !=================================================================
      ! CALC_APRIORI_BCOC begins here!
      !=================================================================

      ! Initialize 
      TEMP2 = 0d0


      ! So far have only developed this for emissions constraints
      IF ( .not. LADJ_EMS ) THEN
  
         CALL ERROR_STOP( 'APRIORI_BCPC not for LICS', 
     &                    'geos_chem_adj_mod.f'        )
        
      ENDIF 


!$OMP PARALLEL DO
!$OMP+DEFAULT( SHARED )  
!$OMP+PRIVATE( I, J, M, N, REG, S2_INV )
      DO N = 1, NNEMS
      IF ( .not. OPT_THIS_EMS(N) ) CYCLE
      DO M = 1, MMSCL
      DO J = 1, JJPAR
      DO I = 1, IIPAR

#if defined ( LOG_OPT )
         ! inverse of error covariance (assume diagonal) 
         S2_INV = 1d0 / ( 2 * LOG( EMS_ERROR(N) ) )
#else 
         S2_INV = 1d0 / ( EMS_ERROR(N) ** 2 )
#endif 

         REG = EMS_SF(I,J,M,N) - EMS_SF0(I,J,M,N) 

         ! Calculate the contribution to the cost function, weighted by REG_PARAM 
         TEMP2(I,J,M,N) = 0.5d0 * REG_PARAM_EMS(N) * S2_INV * REG ** 2

         ! Add this to the gradients
         EMS_SF_ADJ(I,J,M,N) = EMS_SF_ADJ(I,J,M,N) 
     &                       + REG_PARAM_EMS(N) * S2_INV * REG

      ENDDO
      ENDDO
      ENDDO
      ENDDO
!$OMP END PARALLEL DO

      WRITE(6,*) 'COST = ', COST_FUNC

      ! Add total regularization penalty to cost function 
      COST_FUNC = COST_FUNC + SUM(TEMP2(:,:,:,:)) !REG_COST  
      
      ! Write some output
      WRITE(6,*) 'Total cost with penalty = ',    COST_FUNC
      WRITE(6,*) ' MAX REG_COST = ', MAXVAL(TEMP2(:,:,:,:))
      WRITE(6,*) ' SUM REG_COST = ', SUM(TEMP2(:,:,:,:))

      ! Return to calling program 
      END SUBROUTINE CALC_APRIORI_BCOC

!-----------------------------------------------------------------------
      
      SUBROUTINE READ_APERROR( ERR_PERCENT )
!     
!******************************************************************************
!  Subroutine READ_APERROR reads observation error from binary punch files
!  (zhe 6/6/11, adj32_018)
!******************************************************************************
!     
      ! References to F90 modules
      USE BPCH2_MOD
      USE TIME_MOD,   ONLY : GET_TAUb

      IMPLICIT NONE

#     include "CMN_SIZE"    ! Size parameters

      ! Local variables
      CHARACTER(LEN=255)   :: FILENAME
      REAL*8               :: ERR_PERCENT( IIPAR,JJPAR, 2 )
      REAL*4               :: EMS_ERROR( IIPAR,JJPAR, 2 )

      !=================================================================
      ! READ_ERROR_VARIANCE begins here!
      !=================================================================

      ! Filename
      FILENAME = TRIM( 'APERROR_' ) // GET_RES_EXT()

      ! Echo some information to the standard output
      WRITE( 6, 110 ) TRIM( FILENAME )
 110  FORMAT( '     - READ_APERROR: Reading ERR_PERCENT
     &                from: ', a )

      ! Read data from the binary punch file
      CALL READ_BPCH2( FILENAME, 'IJ-AVG-$', 1,
     &           GET_TAUb(),    IGLOB,     JGLOB,
     &           1,  EMS_ERROR,  QUIET=.TRUE. )

      ERR_PERCENT = EMS_ERROR

      ! Return to calling program
      END SUBROUTINE READ_APERROR

!------------------------------------------------------------------------------


      ! End of program
      END MODULE GEOS_CHEM_ADJ_MOD

