! $Id: tpcore_fvdas.intro,v 1.1.1.1 2009/06/09 21:51:54 daven Exp $
!------------------------------------------------------------------------------
!          Harvard University Atmospheric Chemistry Modeling Group            !
!------------------------------------------------------------------------------
!BOI
! !TITLE: Tpcore\_FvDas\_Mod -- GEOS-Chem Advection Module
! !AUTHORS: Claire Carouge and Bob Yantosca
! !AFFILIATION: School of Engineering and Applied Sciences, Harvard University
! !DATE: December 3, 2008
!EOI
!------------------------------------------------------------------------------
